<?xml version="1.0" encoding="UTF-8"?>

<!-- generated on 2022-08-28 19:00:34 by Eclipse SUMO duarouter Version 1.9.2
<configuration xmlns:xsi="http://www.w3.org/2001/XMLSchema-instance" xsi:noNamespaceSchemaLocation="http://sumo.dlr.de/xsd/duarouterConfiguration.xsd">

    <input>
        <net-file value="C:\Dev\vsp-sumo\map\osm.net.xml"/>
        <route-files value="C:\Dev\vsp-sumo\map\osm.passenger.trips.xml"/>
    </input>

    <output>
        <output-file value="routes.rou.xml"/>
        <alternatives-output value="routes.rou.alt.xml"/>
    </output>

    <time>
        <begin value="0"/>
        <end value="3600"/>
    </time>

    <report>
        <no-warnings value="true"/>
        <ignore-errors value="true"/>
        <no-step-log value="true"/>
    </report>

</configuration>
-->

<routes xmlns:xsi="http://www.w3.org/2001/XMLSchema-instance" xsi:noNamespaceSchemaLocation="http://sumo.dlr.de/xsd/routes_file.xsd">
    <vType id="veh_passenger" vClass="passenger"/>
    <vehicle id="veh0" type="veh_passenger" depart="0.00" departLane="best">
        <route edges="408720106#3 561752790#1 -518224462 -102232485#13 -102232485#12 -102232485#11 -102232485#10 -102232485#9"/>
    </vehicle>
    <vehicle id="veh1" type="veh_passenger" depart="3.93" departLane="best" departSpeed="max">
        <route edges="-47133859 453534185 453534187 453534188 463878771#0 463880938#1 -463880938#1"/>
    </vehicle>
    <vehicle id="veh2" type="veh_passenger" depart="7.86" departLane="best" departSpeed="max">
        <route edges="747435025#0 747435025#1 747435025#2 449819599#1 933376048#1 20195000 933360238#0 933360238#4 933360238#7 933360238#8 479688352#0 -480342542#0 -463880938#1 -463878771#0 -453534188 -453534187 -453534185 -453534186 -20194969"/>
    </vehicle>
    <vehicle id="veh3" type="veh_passenger" depart="11.79" departLane="best">
        <route edges="165217775#2 165217775#3 443075135#1 443075135#2 443075135#3 464095589#0 464095589#1 167252476 -167252479#4 -167252479#3 -167252479#2 -167252479#1 -167252479#0"/>
    </vehicle>
    <vehicle id="veh5" type="veh_passenger" depart="19.65" departLane="best">
        <route edges="-1056541241#1 1056541241#1 1056541241#2 464094283#0 464094283#1 464094283#2 48168922 176210449#0 176210473 933376027#1 933376027#3 -464685595#3 -20199057#2 -20199057#1 -20199057#0 -464068845#2 -464068845#1 -464068845#0 464068837 455094330 -455094330"/>
    </vehicle>
    <vehicle id="veh6" type="veh_passenger" depart="23.58" departLane="best">
        <route edges="431302953#7 186336684#1 186336684#2 747435030 464068831 455087655 -747435028#2 -747435028#1 -933376036#0 -464684035#2 -176210473 -176210449#2 -48168922 -464094283#3 -464094283#1 -464094283#0 454014491#2 454014491#3 -20904774#2 20904774#2"/>
    </vehicle>
    <vehicle id="veh8" type="veh_passenger" depart="31.43" departLane="best" departSpeed="max">
        <route edges="464693787#0 464693787#1 408720106#0 408720106#1 408720106#2 408720106#3 561752790#1 -518224462 -102232485#13 -102232485#12"/>
    </vehicle>
    <vehicle id="veh10" type="veh_passenger" depart="39.29" departLane="best">
        <route edges="-933370542#1 -933370542#0 933370543#0 933370543#1 518274582#1 518274582#2 518274582#3 463885916#1 463870474 464707317#0 240865242#2 455070870#0 455070870#1 449819609 408720106#0 -408720106#0"/>
    </vehicle>
    <vehicle id="veh11" type="veh_passenger" depart="43.22" departLane="best" departSpeed="max">
        <route edges="933370517#0 464076796#1 464076796#3 464076796#4 449819599#1 933376048#1 20195000 933360238#0 933360238#4 933360238#7 933360238#8 479688352#0 102232485#1 102232485#2 102232485#3 102232485#4 102232485#5 102232485#6 102232485#7 102232485#8 102232485#9 102232485#10"/>
    </vehicle>
    <vehicle id="veh12" type="veh_passenger" depart="47.15" departLane="best">
        <route edges="-20194989#2 -20194989#1 -933360238#8 -933360238#7 -933360238#5 20194997#6 -20194997#7"/>
    </vehicle>
    <vehicle id="veh13" type="veh_passenger" depart="51.08" departLane="best">
        <route edges="4872825#0 4872825#2 4872825#3 463684962 449819603 173961707#0 173961707#1 -449819613#1 -455723744#1 -455723744#0 -561752789#2 -561752789#1 561752790#1 -518224462 -102232485#13 -102232485#12 -102232485#11 -102232485#10 -102232485#9 463872440#0 463872440#2 463872440#3 431302953#0 431302953#1 431302953#3"/>
    </vehicle>
    <vehicle id="veh14" type="veh_passenger" depart="55.01" departLane="best">
        <route edges="464685595#2 -464685595#3 -20199057#2 -20199057#1 -20199057#0 -464068845#2 -464068845#1 464068845#1"/>
    </vehicle>
    <vehicle id="veh15" type="veh_passenger" depart="58.94" departLane="best" departSpeed="max">
        <route edges="20194997#0 20194997#1 20194997#2 933360238#4 20195007#1 933370575#3"/>
    </vehicle>
    <vehicle id="veh16" type="veh_passenger" depart="62.87" departLane="best">
        <route edges="479283859#1 463885918 463885917#0 463885916#1 463870474 449819602"/>
    </vehicle>
    <vehicle id="veh18" type="veh_passenger" depart="70.73" departLane="best">
        <route edges="-463872440#2 463872440#2 463872440#3 431302953#0 431302953#1 431302953#3 -463885916#1 -518274582#3 -518274582#2"/>
    </vehicle>
    <vehicle id="veh20" type="veh_passenger" depart="78.59" departLane="best">
        <route edges="-20196782#0 518651413 -455094329 455094329 455094331 -464068837 -196359058 -464068840#1 -464068840#0 -464062702 -464062615 -464062614#1 -463896504#1 -463890831#1 463885916#1 463870474 464707317#0 240865242#2 455070870#0 455070870#1 449819609 408720106#0 408720106#1 408720106#2 408720106#3 561752793#1 464694086#0 464694086#1 464694085 464694084 500990449#0 500990449#1 4872825#0 -4872825#0"/>
    </vehicle>
    <vehicle id="veh21" type="veh_passenger" depart="82.52" departLane="best">
        <route edges="408720106#1 408720106#2 408720106#3 561752790#1 -518224462 -102232485#13 -102232485#12 -102232485#11 -102232485#10 -102232485#9 -102232485#8 -102232485#7 -102232485#6 -102232485#5 -102232485#4 -102232485#3 -102232485#2 -102232485#1 -479688352#0 -933360238#8 -933360238#7 -933360238#5 20194997#6 20194997#8 20194997#9 -933376047#1 -449819599#1 -464076796#4 -464076796#3 -464076796#2 933370527#1 933370527#2 933370527#3 -176210473 -176210449#2 -48168922 -464094283#3 -464094283#1 -464094283#0 -1056541241#2 -1056541241#1 -1056541241#0 1056541243"/>
    </vehicle>
    <vehicle id="veh22" type="veh_passenger" depart="86.45" departLane="best">
        <route edges="102232485#5 102232485#6 102232485#7 102232485#8 102232485#9 102232485#10 102232485#11 102232485#12 102232485#13 102232485#14 561752792#0 561752793#1 464694086#0 464694086#1 464694085 464694084 500990449#0 500990449#1 4872825#0 4872825#2 4872825#3 463684962 455735491#0 -455735491#0"/>
    </vehicle>
    <vehicle id="veh23" type="veh_passenger" depart="90.37" departLane="best" departSpeed="max">
        <route edges="-464694085 -464694086#1 -464694086#0 561752791#0 561752790#1 -518224462 -102232485#13 -102232485#12 -102232485#11 -102232485#10 -102232485#9 -102232485#8 -102232485#7 -102232485#6 -102232485#5 -102232485#4 -102232485#3 -102232485#2 -102232485#1 -479688352#0 -933360238#8 -933360238#7 -933360238#5 -933360238#1 933360238#0"/>
    </vehicle>
    <vehicle id="veh24" type="veh_passenger" depart="94.30" departLane="best">
        <route edges="431302953#6 431302953#7 431302953#8 431302953#9"/>
    </vehicle>
    <vehicle id="veh25" type="veh_passenger" depart="98.23" departLane="best">
        <route edges="-449819611#0 -463639303#1 -449819613#1 -455723744#1 -455723744#0 -561752789#2 -561752789#1 561752790#1 -518224462 -102232485#13 -102232485#12 -102232485#11 -102232485#10 -102232485#9 463872440#0 463872440#2 463872440#3 431302953#0 431302953#1 431302953#3 -463885916#1 463890831#1 463896504#1 464062614#1 464062615 464062702 464068840#0 464068840#1 196359058 464068845#0"/>
    </vehicle>
    <vehicle id="veh27" type="veh_passenger" depart="106.09" departLane="best">
        <route edges="20195008#0 -20196783#2 -20196783#1 -20196783#0 -464059641#1 518274582#1 518274582#2 518274582#3 463885916#1 463870474 464707317#0 240865242#2 455070870#0 455070870#1 449819609 408720106#0 408720106#1 408720106#2 408720106#3 561752793#1 464694086#0 464694086#1 464694085 464694084 500990449#0 500990449#1 4872825#0 4872825#2 4872825#3 463684962 455735491#0 463639298#3"/>
    </vehicle>
    <vehicle id="veh28" type="veh_passenger" depart="110.02" departLane="best">
        <route edges="48114777#1 464070870#0 48114776#1 48114776#2 464070867#1 464070867#2 464070869#0 464070869#1 20415483#0 20415483#1 -464068837 -196359058 -464068840#1 -464068840#0 -464062702 -464062615 -464062614#1 -463896504#1 -463890831#1 463885916#1 463870474 464707317#0 464707317#2"/>
    </vehicle>
    <vehicle id="veh29" type="veh_passenger" depart="113.95" departLane="best">
        <route edges="-463872440#3 -463872440#2 -463872440#0 -102232485#8 -102232485#7 -102232485#6 -102232485#5 -102232485#4 -102232485#3 -102232485#2 -102232485#1 -480342542#0 -463880938#1 -463878771#0 167252476 -167252479#4 -167252479#3 -167252479#2 -167252479#1 -167252479#0"/>
    </vehicle>
    <vehicle id="veh30" type="veh_passenger" depart="117.88" departLane="best">
        <route edges="-747435028#1 747435028#1 747435024#0 933376047#1 -20194997#9 -20194997#8 -20194997#7 933360238#4 933360238#7 933360238#8 479688352#0 102232485#1 102232485#2 102232485#3 102232485#4 102232485#5 102232485#6 102232485#7 102232485#8 102232485#9 102232485#10 102232485#11 102232485#12 102232485#13 102232485#14 561752792#0 561752793#1 464694086#0 464694086#1 464694085 464694084 -464694084"/>
    </vehicle>
    <vehicle id="veh31" type="veh_passenger" depart="121.81" departLane="best">
        <route edges="-463870474 -463885916#1 -518274582#3 -518274582#2 -518274582#1 -933370543#1 -933370543#0 -933376047#1 -449819599#1 -464076796#4 -464076796#3 -464076796#2 933370527#1"/>
    </vehicle>
    <vehicle id="veh32" type="veh_passenger" depart="125.74" departLane="best">
        <route edges="561752791#0 561752790#1 -518224462 -102232485#13 -102232485#12 -102232485#11 -102232485#10 -102232485#9 -102232485#8 -102232485#7 -102232485#6 -102232485#5 -102232485#4 -102232485#3 -102232485#2 -102232485#1 -479688352#0 -933360238#8 -933360238#7 -933360238#5 -933360238#1"/>
    </vehicle>
    <vehicle id="veh35" type="veh_passenger" depart="137.53" departLane="best" departSpeed="max">
        <route edges="-464694085 -464694086#1 -464694086#0 561752791#0 561752790#1 -518224462 -102232485#13 -102232485#12 -102232485#11 -102232485#10 -102232485#9 463872440#0 463872440#2 463872440#3 431302953#0 431302953#1 431302953#3 -463885916#1 463890831#1 463896504#1 464062614#1 464062615 464062702 464068840#0 464068840#1 196359058 464068837 20415484#0 20415484#1 48114777#0 48114777#1 -464070871#3"/>
    </vehicle>
    <vehicle id="veh36" type="veh_passenger" depart="141.46" departLane="best" departSpeed="max">
        <route edges="20196779 -455050626#1 -455050626#0 25865213 4944288#0 4944288#1 4944288#2 4944288#3 4944288#4 4944288#5 464707317#0 240865242#2 455070870#0 455070870#1 449819609 -464693787#1 -464693787#0"/>
    </vehicle>
    <vehicle id="veh37" type="veh_passenger" depart="145.39" departLane="best">
        <route edges="20415484#1 464070867#0 464070867#1 464070867#2 464070869#0 464070869#1 20415483#0 20415483#1 -464068837 464068845#0 464068845#1 464068845#2 20199057#0 697556913#0"/>
    </vehicle>
    <vehicle id="veh40" type="veh_passenger" depart="157.17" departLane="best">
        <route edges="-20904774#1 932884346#1 932884346#2 933376028#1 933376028#2 933376028#3 48114959 464076796#1 464076796#3 464076796#4 449819599#1 933376048#1 20195000 933360238#0 933360238#4 933360238#7 933360238#8 479688352#0 102232485#1 102232485#2 102232485#3 102232485#4 102232485#5 102232485#6 102232485#7 102232485#8 102232485#9 102232485#10 102232485#11 102232485#12 102232485#13 102232485#14 561752792#0 561752789#1 561752789#2 455723744#0 455723744#1 449819613#1 463639303#1 449819611#0"/>
    </vehicle>
    <vehicle id="veh41" type="veh_passenger" depart="161.10" departLane="best">
        <route edges="464076796#1 464076796#3 464076796#4 449819599#1 933376048#1 20195000 933360238#0 -20194997#3 20194990#0 -167252481#0 -167252479#4 -167252479#3 167252479#3"/>
    </vehicle>
    <vehicle id="veh43" type="veh_passenger" depart="168.96" departLane="best">
        <route edges="933376028#3 48114959 933370527#1 933370527#2 933370527#3 933376027#1 933376027#3 -464685595#3 -20199057#2 -20199057#1 -20199057#0 20199057#0"/>
    </vehicle>
    <vehicle id="veh44" type="veh_passenger" depart="172.89" departLane="best" departSpeed="max">
        <route edges="933370575#0 20195000 933360238#0 933360238#4 933360238#7 933360238#8 479688352#0 102232485#1 102232485#2 102232485#3 102232485#4 102232485#5 102232485#6 102232485#7 102232485#8 102232485#9 102232485#10 102232485#11 102232485#12 102232485#13 102232485#14 561752792#0 561752793#1 464694086#0 464694086#1 464694085 464694084 500990449#0 500990449#1 4872825#0 4872825#2 4872825#3 463684962 455735491#0 553532894#1"/>
    </vehicle>
    <vehicle id="veh45" type="veh_passenger" depart="176.82" departLane="best">
        <route edges="-102232485#2 -102232485#1 460894763#1 460894760 463885918 463885917#0 463885916#1 431302953#4 431302953#5 431302953#6 73098879#1 73098879#2 73098879#3 4944288#3 464062613#0"/>
    </vehicle>
    <vehicle id="veh46" type="veh_passenger" depart="180.75" departLane="best">
        <route edges="453534188 463878771#0 463880938#1 480342542#0 460894763#1 460894760 463885918 463885917#0 463890831#1 463896504#1 464062614#1 464062615 464062702 464068840#0 464068840#1 196359058 464068837 20415484#0 20415484#1 464070867#0 464070867#1 464070867#2 464070869#0 464070869#1 20415483#0"/>
    </vehicle>
    <vehicle id="veh47" type="veh_passenger" depart="184.68" departLane="best" departSpeed="max">
        <route edges="-464694085 -464694086#1 -464694086#0 561752791#0 561752790#1 -518224462 -102232485#13 -102232485#12 -102232485#11 -102232485#10 -102232485#9 -102232485#8 -102232485#7 -102232485#6 -102232485#5 -102232485#4 -102232485#3 -102232485#2 -102232485#1 -479688352#0 -933360238#8 -933360238#7 -933360238#5 20194997#6 20194997#8 20194997#9 -933376047#1 -449819599#1 -464076796#4 -464076796#3 -464076796#2 933370527#1 933370527#2 933370527#3 -176210473 -176210449#2 -48168922 -464094283#3 -464094283#1 -464094283#0 454014491#2 454014491#3 454014491#4"/>
    </vehicle>
    <vehicle id="veh48" type="veh_passenger" depart="188.61" departLane="best" departSpeed="max">
        <route edges="186336683#0 186336684#0 186336684#1 186336684#2 747435030 464068831 455087655 -747435028#2 -747435028#1 -933376036#0 -464684035#2 -176210473 -176210449#2 -48168922 933376028#1 933376028#2 933376028#3 933370541#1"/>
    </vehicle>
    <vehicle id="veh49" type="veh_passenger" depart="192.54" departLane="best" departSpeed="max">
        <route edges="20192254#0 20192257#2 -463640958#0 -4872828#1 -4872828#0 -449819611#0 -463639303#1 -449819613#1 -455723744#1 -455723744#0 -561752789#2 -561752789#1 561752790#1 -518224462 -102232485#13 -102232485#12 -102232485#11 -102232485#10 -102232485#9 -102232485#8 -102232485#7 -102232485#6 -102232485#5 -102232485#4 -102232485#3 -102232485#2 -102232485#1 -479688352#0 -933360238#8 -933360238#7 -933360238#5 20194997#6 20194997#8 20194997#9 -933376047#1 -449819599#1 -464076796#4 -464076796#3 -464076796#2 -176210451 -454014493#4 -454014493#2 -454014493#1 -454014493#0"/>
    </vehicle>
    <vehicle id="veh50" type="veh_passenger" depart="196.47" departLane="best">
        <route edges="79875642#1 464072573#0 464072573#1 20415483#0 20415483#1 -464068837 -196359058 -464068840#1 -464068840#0 -464062702 -464062615 -464062614#1 -463896504#1 -463890831#1 463885916#1 463870474 464707317#0 240865242#2 455070870#0 455070870#1 449819609 408720106#0 408720106#1 408720106#2 408720106#3 561752793#1 464694086#0 -464694086#0 561752791#0"/>
    </vehicle>
    <vehicle id="veh51" type="veh_passenger" depart="200.40" departLane="best">
        <route edges="-518224462 -102232485#13 -102232485#12 -102232485#11 -102232485#10 -102232485#9 -102232485#8 -102232485#7 -102232485#6 -102232485#5 -102232485#4 -102232485#3 -102232485#2 -102232485#1 -479688352#0 -933360238#8 -933360238#7 -933360238#5 20194997#6 20194997#8 20194997#9 -933376047#1 -449819599#1 -464076796#4 -464076796#3 -464076796#2 933370527#1 933370527#2 933370527#3 -176210473 -176210449#2 -48168922 -464094283#3 -464094283#1 -464094283#0 454014491#2 454014491#3"/>
    </vehicle>
    <vehicle id="veh52" type="veh_passenger" depart="204.33" departLane="best">
        <route edges="222715395#6 -20192252#1 -20192252#0 20192250#1 20192250#2 879395601 20192249 464095589#1 463878771#0 463880938#1 480342542#0 -479688352#0 -933360238#8 -933360238#7 -933360238#5 20194997#6 20194997#8 20194997#9 -933376047#1 -449819599#1 -464076796#4 -464076796#3 -464076796#2 933370527#1 933370527#2 933370527#3 -176210473 -176210449#2 -48168922 -464094283#3 -464094283#1 -464094283#0 -1056541241#2 -1056541241#1 -1056541241#0 -29366939"/>
    </vehicle>
    <vehicle id="veh53" type="veh_passenger" depart="208.25" departLane="best">
        <route edges="464070870#0 48114776#1 48114776#2 464070867#1 464070867#2 464070869#0 464070869#1 20415483#0 20415483#1 -464068837 464068845#0 464068845#1 464068845#2 20199057#0 20199057#1 20199057#2"/>
    </vehicle>
    <vehicle id="veh54" type="veh_passenger" depart="212.18" departLane="best">
        <route edges="-102232485#7 -102232485#6 -102232485#5 -102232485#4 -102232485#3 -102232485#2 -102232485#1 -479688352#0 -933360238#8 -933360238#7 -933360238#5 20194997#6 20194997#8 20194997#9 -933376047#1 -449819599#1 -464076796#4 -464076796#3 -464076796#2 933370527#1 933370527#2 933370527#3 -176210473 -176210449#2 -48168922 -464094283#3 -464094283#1 -464094283#0 454014491#2 454014491#3 -20904774#2 -20904774#1 932884346#1"/>
    </vehicle>
    <vehicle id="veh55" type="veh_passenger" depart="216.11" departLane="best">
        <route edges="561752793#1 464694086#0 464694086#1 464694085 464694084 500990449#0 500990449#1 4872825#0"/>
    </vehicle>
    <vehicle id="veh57" type="veh_passenger" depart="223.97" departLane="best">
        <route edges="561752792#0 561752790#1 -518224462 -102232485#13 -102232485#12 -102232485#11 -102232485#10 -102232485#9 -102232485#8 -102232485#7 -102232485#6 -102232485#5 -102232485#4 -102232485#3 -102232485#2 -102232485#1 -479688352#0 -933360238#8 -933360238#7 -933360238#5 20194997#6 20194997#8 20194997#9 -933376047#1 -449819599#1 -464076796#4 -464076796#3 -464076796#2 933370527#1 933370527#2"/>
    </vehicle>
    <vehicle id="veh60" type="veh_passenger" depart="235.76" departLane="best">
        <route edges="464068845#1 464068845#2 20199057#0 -464097866#1 -464097866#0 455087655 -747435028#2 -747435028#1 -933376036#0 -464684035#2 -176210473 -176210449#2 -48168922 933376028#1 20904777#1 20904777#2 20904777#3 20904777#4 -20904777#4"/>
    </vehicle>
    <vehicle id="veh62" type="veh_passenger" depart="243.62" departLane="best">
        <route edges="165217775#3 165217775#4 223184234#2 -102232485#8 -102232485#7 -102232485#6 -102232485#5 -102232485#4 -102232485#3 -102232485#2 -102232485#1 460894763#1 -460894763#1"/>
    </vehicle>
    <vehicle id="veh63" type="veh_passenger" depart="247.55" departLane="best">
        <route edges="20194997#2 933360238#4 933360238#7 933360238#8 479688352#0 460894763#1 460894760 463885918 463885917#0 463890831#1 463896504#1 464062614#1 464062615 464062702 464068840#0 464068840#1 196359058 464068845#0 464068845#1"/>
    </vehicle>
    <vehicle id="veh64" type="veh_passenger" depart="251.48" departLane="best" departSpeed="max">
        <route edges="-462445300#1 -463640958#0 -4872828#1 -4872828#0 -449819611#0 -463639303#1 -449819613#1 -455723744#1 -455723744#0 -561752789#2 -561752789#1 561752790#1 -518224462 -102232485#13 -102232485#12 -102232485#11 -102232485#10 -102232485#9 -102232485#8 -102232485#7 -102232485#6 -102232485#5 -102232485#4 -102232485#3 -102232485#2 -102232485#1 -479688352#0 -933360238#8 -933360238#7 -933360238#5 -933360238#1"/>
    </vehicle>
    <vehicle id="veh65" type="veh_passenger" depart="255.41" departLane="best">
        <route edges="933376028#3 48114959 933370527#1 933370527#2 933370527#3 933376027#1 933376027#3 -464685595#3 -20199057#2 -20199057#1 -20199057#0 -464068845#2 -464068845#1 -464068845#0 464068837 455094330 977964663 455050626#0"/>
    </vehicle>
    <vehicle id="veh66" type="veh_passenger" depart="259.34" departLane="best">
        <route edges="167252479#4 167252481#0 20194990#2 -20194989#2 -20194989#1 -933360238#8 -933360238#7 20195007#1 20195007#2"/>
    </vehicle>
    <vehicle id="veh67" type="veh_passenger" depart="263.27" departLane="best" departSpeed="max">
        <route edges="-20904775#3 -20904775#2 -20904775#1 932884346#2 933376028#1 933376028#2 933376028#3 48114959 464076796#1 464076796#3 464076796#4 449819599#1 933376047#1 933370543#0 933370543#1 518274582#1 518274582#2 518274582#3 -463885917#0 240865242#0 431302953#3 -463885916#1"/>
    </vehicle>
    <vehicle id="veh68" type="veh_passenger" depart="267.19" departLane="best">
        <route edges="-933360238#8 933360238#8 479688352#0 102232485#1 102232485#2 102232485#3 102232485#4 102232485#5 102232485#6 102232485#7 102232485#8 463872440#0 463872440#2 463872440#3 431302953#0 431302953#1 240865242#1"/>
    </vehicle>
    <vehicle id="veh69" type="veh_passenger" depart="271.12" departLane="best">
        <route edges="-463878771#0 -453534188 453534188 463878771#0 463880938#1 480342542#0 102232485#1 102232485#2 102232485#3 102232485#4 102232485#5 102232485#6 102232485#7 102232485#8 463872440#0 463872440#2 -463872440#2"/>
    </vehicle>
    <vehicle id="veh71" type="veh_passenger" depart="278.98" departLane="best">
        <route edges="-463872440#3 463872440#3 431302953#0 431302953#1 431302953#3 431302953#4 431302953#5 431302953#6 73098879#1 73098879#2 73098879#3 73098879#4"/>
    </vehicle>
    <vehicle id="veh73" type="veh_passenger" depart="286.84" departLane="best">
        <route edges="-464062614#1 -463896504#1 -463890831#1 463885916#1 463870474 464707317#0 240865242#2 455070870#0 455070870#1 449819609 408720106#0 408720106#1 408720106#2 408720106#3 561752789#1 561752789#2 455723744#0 455723744#1 449819613#1 463639303#1 449819611#0 463621817#1 4872828#1 4872828#2 462445300#1"/>
    </vehicle>
    <vehicle id="veh75" type="veh_passenger" depart="294.70" departLane="best">
        <route edges="933360238#0 20194997#6 20194997#8 20194997#9 -933376047#1 -449819599#1 -464076796#4 -464076796#3 -464076796#2 933370527#1 933370527#2 933370527#3 -176210473 -176210449#2 -48168922 933376028#1 933376028#2 20904778#1 20904778#2 20904778#3 20904778#4 20904778#5"/>
    </vehicle>
    <vehicle id="veh77" type="veh_passenger" depart="302.56" departLane="best" departSpeed="max">
        <route edges="464693787#0 464693787#1 -449819609 -455070870#1 -455070870#0"/>
    </vehicle>
    <vehicle id="veh78" type="veh_passenger" depart="306.49" departLane="best">
        <route edges="-20194997#8 -20194997#7 933360238#4 933360238#7 933360238#8 479688352#0 102232485#1 102232485#2 102232485#3 102232485#4 102232485#5 102232485#6 102232485#7 102232485#8 102232485#9 102232485#10 102232485#11 102232485#12 102232485#13 102232485#14 561752792#0 561752789#1 561752789#2 455723744#0 455723744#1 449819613#1 -173961707#1 173961707#1"/>
    </vehicle>
    <vehicle id="veh80" type="veh_passenger" depart="314.35" departLane="best" departSpeed="max">
        <route edges="456313039 464693787#1 408720106#0 408720106#1 408720106#2 408720106#3 561752789#1 561752789#2 455723744#0 455723744#1 449819613#1 463639303#1 449819611#0 463621817#1 4872828#1 4872828#2 462445300#1"/>
    </vehicle>
    <vehicle id="veh81" type="veh_passenger" depart="318.28" departLane="best">
        <route edges="933376027#1 933376027#3 -464685595#3 -20199057#2 747435026 747435024#0 933376047#1 -20194997#9"/>
    </vehicle>
    <vehicle id="veh83" type="veh_passenger" depart="326.14" departLane="best">
        <route edges="518221036#1 518221036#2 20192254#6 173961707#0 173961707#1 -449819613#1 -455723744#1 -455723744#0 -561752789#2 -561752789#1 561752790#1 -518224462 -102232485#13 -102232485#12 -102232485#11 -102232485#10 -102232485#9 -102232485#8 -102232485#7 -102232485#6 -102232485#5 -102232485#4 -102232485#3 -102232485#2 -102232485#1 -479688352#0 -933360238#8 -933360238#7 -933360238#5 20194997#6 20194997#8 20194997#9 -933376047#1 -449819599#1 -464076796#4 -464076796#3"/>
    </vehicle>
    <vehicle id="veh85" type="veh_passenger" depart="333.99" departLane="best">
        <route edges="165217775#2 165217775#3 443075135#1 443075135#2 463878770#3 463878770#4 449819613#1 -173961707#1 -173961707#0 -449819603 -463684962 -4872825#3 -4872825#2"/>
    </vehicle>
    <vehicle id="veh86" type="veh_passenger" depart="337.92" departLane="best">
        <route edges="-464076796#2 933370527#1 933370527#2 933370527#3 933376027#1 933376027#3 -464685595#3 -20199057#2 -20199057#1 697556913#0 787491577 747435033"/>
    </vehicle>
    <vehicle id="veh87" type="veh_passenger" depart="341.85" departLane="best">
        <route edges="167252480#4 167252480#5 518221036#1 518221036#2 463639298#0 553532894#1"/>
    </vehicle>
    <vehicle id="veh89" type="veh_passenger" depart="349.71" departLane="best">
        <route edges="977964663 25865213 4944288#0 4944288#1 4944288#2 4944288#3 4944288#4 4944288#5 464707317#0 240865242#2 455070870#0 455070870#1 449819609 408720106#0 408720106#1 408720106#2 408720106#3 561752789#1 561752789#2 455723744#0 455723744#1 449819613#1 463639303#1 449819611#0 463621817#1 4872828#1 4872828#2"/>
    </vehicle>
    <vehicle id="veh91" type="veh_passenger" depart="357.57" departLane="best">
        <route edges="4872825#3 463684962 449819603 173961707#0 173961707#1 -449819613#1 -455723744#1 -455723744#0 -561752789#2 -561752789#1 -408720106#3 -408720106#2 -408720106#1 -408720106#0 -449819609"/>
    </vehicle>
    <vehicle id="veh94" type="veh_passenger" depart="369.36" departLane="best" departSpeed="max">
        <route edges="-464694085 -464694086#1 -464694086#0 561752791#0 561752790#1 -518224462 -102232485#13 -102232485#12 -102232485#11 -102232485#10 -102232485#9 463872440#0 463872440#2 463872440#3 431302953#0 431302953#1 431302953#3 431302953#4 464708839#4 464708839#5"/>
    </vehicle>
    <vehicle id="veh95" type="veh_passenger" depart="373.29" departLane="best" departSpeed="max">
        <route edges="186336683#0 186336684#0 186336684#1 186336684#2 -464062702 -464062615 -464062614#1 -463896504#1 -463890831#1 -463885917#0 -463885918 -460894760 -460894763#1 -480342542#0 -463880938#1 -463878771#0 167252476 -167252479#4 167252479#4"/>
    </vehicle>
    <vehicle id="veh96" type="veh_passenger" depart="377.22" departLane="best" departSpeed="max">
        <route edges="933370517#0 933370527#1 933370527#2 933370527#3 933376027#1 933376027#3 -464685595#3 787491582#1 933381139"/>
    </vehicle>
    <vehicle id="veh97" type="veh_passenger" depart="381.15" departLane="best">
        <route edges="20195007#2 -20195007#2 933370575#3 460894760 463885918 463885917#0 463890831#1 463896504#1"/>
    </vehicle>
    <vehicle id="veh98" type="veh_passenger" depart="385.08" departLane="best">
        <route edges="-408720106#0 -449819609 449819615 479283859#0 431302953#1 431302953#3 -463885916#1 463890831#1 463896504#1 464062614#1 464062615 464062702 747435030 464068831 464097866#0 464097866#1 697556913#0 -697556913#0"/>
    </vehicle>
    <vehicle id="veh99" type="veh_passenger" depart="389.00" departLane="best">
        <route edges="933370542#2 -933370542#2 -933370542#1 -933370542#0 -20194997#9 -20194997#8 -20194997#7 933360238#4 933360238#7 933360238#8 479688352#0 102232485#1 102232485#2 102232485#3 102232485#4 102232485#5 102232485#6 102232485#7 102232485#8 102232485#9 102232485#10 102232485#11 443075135#0 443075135#1 443075135#2 443075135#3 879395600 223184233#0 223184233#1 -222715395#5 -222715395#4 222715395#4"/>
    </vehicle>
    <vehicle id="veh102" type="veh_passenger" depart="400.79" departLane="best">
        <route edges="20192254#1 20192254#2 20192254#3 20192254#4 20192254#6 173961707#0 173961707#1 -449819613#1 -455723744#1 -455723744#0 -561752789#2 -561752789#1 561752790#1 -518224462 -102232485#13 -102232485#12 -102232485#11 -102232485#10 -102232485#9 463872440#0 463872440#2 463872440#3 431302953#0 431302953#1 431302953#3 -463885916#1 463890831#1 463896504#1 464062614#1 464062615 464062702 464068840#0 464068840#1 196359058 464068837 455094330 20196780 518651409"/>
    </vehicle>
    <vehicle id="veh103" type="veh_passenger" depart="404.72" departLane="best">
        <route edges="-408720106#2 408720106#2 408720106#3 561752790#1 -518224462 -102232485#13 -102232485#12 -102232485#11 -102232485#10 -102232485#9 -102232485#8 -102232485#7 -102232485#6 -102232485#5 -102232485#4 -102232485#3 -102232485#2 -102232485#1 -479688352#0 -933360238#8 -933360238#7 -933360238#5 20194997#6 20194997#8 20194997#9 -933376047#1 -449819599#1 -464076796#4 -464076796#3 -464076796#2 -176210451 933370541#1"/>
    </vehicle>
    <vehicle id="veh105" type="veh_passenger" depart="412.58" departLane="best">
        <route edges="20904778#1 -20904778#1 933376028#3 48114959 464076796#1 464076796#3 464076796#4 449819599#1 933376048#1 20195000 933360238#0 933360238#4 933360238#7 933360238#8 479688352#0 102232485#1 102232485#2 102232485#3 102232485#4 102232485#5 102232485#6 102232485#7 102232485#8 102232485#9 102232485#10 102232485#11 102232485#12 102232485#13 102232485#14 561752792#0 561752789#1 561752789#2 455723744#0 455723744#1 449819613#1 463639303#1 449819611#0 463621817#1 4872828#1 4872828#2 462445300#1"/>
    </vehicle>
    <vehicle id="veh106" type="veh_passenger" depart="416.51" departLane="best">