<?xml version="1.0" encoding="UTF-8"?>

<!-- generated on 2022-09-25 14:39:22.644874 by socket_server.py v1_14_1+0000-f654d7b963e
  options: 
-->

<tazs xmlns:xsi="http://www.w3.org/2001/XMLSchema-instance" xsi:noNamespaceSchemaLocation="http://sumo.dlr.de/xsd/taz_file.xsd">
    <!-- id="197561" name="Westmount" -->
    <taz id="197561" edges="773796987#0 -224531885#1 -38340509#1 993758153 224531887 37838772 808049980#1 808049980#0 38340498#2 38340503 331907686 993758149 38340490 545940069 -20170686#1 20170686#0 508160613#1 733974069-AddedOnRampEdge 20170686#1 -20170335#0 224531884 38340518 -38340498#4 38340509#1 -678887672#2 551004908#1 38340482#0 -20170686#0 20170392#4 993738796 993738791#1 37956453 38340482#1 -38340498#1 -38340535#0 20172537#0 224531882#0 993738810#1 -38340498#3 -38340519 -678887672#3 92352263#2 -329067231#2 -678887672#0 26026751#0 -107696154#0 -37956453 35267216#1 20170392#3 107696154#2 231387458#0 224531886 635691840#1 38340498#0 24163564 224531883#1 -924892082 366732024#3 993738803#0 38340482#2 993758145 993738807#1 92352264 38340519 -570334096#1 678887672#7 993740678#1 38340487#0 -561738769 224531885#0 924892081#0 -38340482#0 -165217874 37953798#0 -20170335#1 -92352263#1 329067231#5 38340499 38340535#0 -38340509#0 993738803#1 -37807547#1 430589823-AddedOffRampEdge -38340482#1 -329067231#3 -808049980#1 -37838772 406830691 -38340487#3 38340509#0 453753702#0 454754496#1 -329067231#5 -224531884 773796987#1 38340498#3 506062129#1 26026751#3 -808049980#3 -224531888#1 -224531882#0 993738807#0 224531883#2 -506062129#2 224531888#1 -678887672#7 453753703 -506062129#1 -678887672#5 1082939310 -224531883#2 38340487#2 784099214#1 231387458#3 37953798#1 -784099214#1 545940066 575547253#0 26026751#4 -38340535#2 20170391 -329067231#0 38340535#3 38340535#5 92352263#0 92352263#1 92352267#2 38340489 224531885#1 37953803 -224531882#1 37953796#1 20170335#1 993738801#0 733974069 924892082 993758150 329067231#0 -38340541 20170392#1 107696154#1 35267216#0 -329067231#1 -506062129#3 -453753705#2 808049980#2 -506062129#6 20170389#0 -20170332 20170392#2 38340535#1 453753705#0 231387460#0 20170335#0 -506062129#0 506062129#5 20170332 329067231#4 -24163564 728796869#0 20172537#1 92352267#3 -808049980#2 -20170392#1 -924892081#1 10509453#1 924892083 38340505#0 200638835#2 993738791#0 -506062129#4 430589823 990622077 -92352265 -38340535#1 -451799493#0 506062129#3 4886313 231387458#2 -224531886 -38340533 26026751#2 -224531883#1 924892081#2 329067231#2 406830687 -138758351 551004908#0 -107696154#2 463679894#0 475308632 -38340498#0 453753705#2 -92352264 38340508 38340487#3 678887672#0 92352267#1 92352265 -924892081#0 561738769 506062129#2 993738798#1 38340522 -35267216#0 451799493#0 -224531887 -224531885#0 -678887672#8 37953796#0 -38340487#1 92352267#6 453753701 993738799 924892081#1 -224531888#0 329067231#3 329694552#1 38340502 10509462 -453753705#1 -37953801 4320470 38340505#1 -38340522 37956493 -808049980#0 -329067231#4 993740678#0 678887672#3 993738804 475308631 -37852825 38340533 37853176 165217874 37953792 -38340535#3 37807547#1 200638835#0 92352266#1 -38340502 492406919 561738770 -38340535#4 38340535#4 570334096#1 20170328#3 38340520 -35267216#1 678887672#2 38340535#2 506062129#4 -20170392#4 -20170328#3 -678887672#1 635691840#0 508160613#0 453954922 92352267#5 997115915 38340506 38340488 -773796987#1 678887672#8 92352267#4 -38340487#2 38340540 200638835#3 678887672#1 38340498#1 -37953796#1 -20170392#2 38340541 20170389#1 -38340482#2 -107696154#1 808049980#3 107696154#0 993738810#0 773796987#2 -924892083 -38340498#2 993738800 -773796987#0 -20170392#3 -92352263#3 -38340487#0 224531882#1 678887672#5 -138758354 38340487#1 -38340506 -773796987#2 329067231#1 37953801 224531888#0 -38340505#1 -38340508 38343538 453753700 506062129#0 -38340489 38340498#4 -10509462 -475308632 -38340535#5 -37953796#0 993738801#1 475308633 -924892081#2 -92352263#0 -38340505#0 -475308633 231387458#1 337432401#6"/>
    <!-- id="1572820" name="Ville-Marie" -->
    <taz id="1572820" edges="1073101738#0 1093161749 -41258974#1 400874848#1 477791108#2 479286502 4886314#2 983430901#1 1083532829#0 -329384217#3 165337364#7 704194130#0 991016331#0 891939737#1 806947072 -354710422#0 806947102#0 337432401#3 806947058#1 1090298889 1066503151#1 561490747 1080053563#2 704194120#2 19899867 331907686 465649967#1 -20112623#7 561490751#2 1042466504#5 1042466505#1 -134811810#5 -20112449#3 400022149 399306775#1 165264481#2 1061398538#0 479286506#0 399808434 806940756#1 992791542 806940764#1 1061402109#0 -111771067#1 -998268054#7 330150435#4 766379923 891939734#2 1084242793 400000591#1 40332814 1083602293#1 465408864#3 477794900#1 1083572691#1 -244492478 399315909#0 399315908#0 1072839936#7 1080078916#1 -473733101#5 1073075557#1 399814704#0 806947102#7 1080024438#2 1080020849#1 477912389#1 620899819 244648186 1093364879 766379890 806924910 40331155#0 476168460#1 615978976 998268054#18 -112850610 400874852#1 1090296245#1 -465159970 -77688236 859883128 -1083559348 329384217#9 477890300#1 293883671#1 77688235#0 481494291#1 1061395652#2 400910684 95427581 964696603#0 859387907#0 410971738#1 103896396#8 704189150#0 704194082#0 -792730002#0 1093574969#0 -66345479 111771071#1 1090298422#1 1083599858#1 454188456 704194132#4 1072839936#5 477915723 615960822 859387908 -1066503200 859382588#1 400874849#0 1073101738#1 1051822950#17 1082143328#2 366840862#13 827050975#3 1082161712#3 704189143 1083570162#2 1090296514 806940781#0 401056186#7 -37852846#1 -37852832#2 806947102#6 20112451#4 1053723952#0 20112457#1 1080024436#2 244648195#0 410971731#2 463676555#4 806924902#1 -41258976#4 1080285242#0 401089227#1 792730001#0 704194093#1 827050973#0 1080020851#2 159274205 686625292 -463677569#3 806947075#1 -40331091 992806119 546047308#0 1073080551#1 104224465#2 1080292014#0 48678911#8 704194095#4 806940748#3 366840860 1080055537 -329694555#5 165217839#0 1080276501#0 1080077826#0 1084242781#1 162975557#1 481492405#3 402436444#1 859382584 1090298420#0 1084242801#1 20112449#3 1082150047#3 104224462#0 1061398997#3 340404513#0 -329694555#6 806940701#0 806924909#0 620899816 1072839937#2 1090296242#1 1090296249#2 440244312#0 399814698 -37997315#1 347723994 20178495#1 478157841 1083353574 704194110 401056186#6 806947074#5 398546120#1 -766379901 806947040#0 1051147172#11 103521741#0 998268054#15 1083564735#5 1083355343 704194132#0 752898897 806940761#1 1082164227#0 399761118 41691764 398546114#0 -465408862#4 806947053#1 -40331155#1 1084242784 19899376#4 944264312 806940757#0 1080020851#1 479285594#0 463676555#3 477904029 859387911 704194095#3 38340499 40332813 806947093#0 41258971#1 -329694553#1 477745729 733125585#2 306673550 -455713848#1 25367347 -37807547#1 1026106360#0 165265066 637895773 1083590186#1 39442470#0 401096939#0 1083350783 401056186#3 455083993#2 -454002561#0 -23920574#0 465408862#1 -21280706#3 -766379890 165217771#2 22080579#2 -463677569#2 -263157468#1 704196235#1 20112442#2 -20112467#1 48678911#2 1080053550#5 806947043#0 704189150#4 406830691 473733101#5 1090298428#1 704194126#1 -329694555#1 450956616#1 -1051822951#11 1080024441#3 704196236#0 -143920958#0 806940747#2 704194124#2 953108141#4 475351680 1083602292#1 -406830688 244648195#2 399814700 400303149 37918515#0 1080024441#4 1083564735#0 -403955588#2 1084242815 20112451#0 -1042466504#5 704214838#5 329694554#2 329989224#0 37997316#0 -410971737 1083552974#0 704196246#1 827050975#8 293883671#0 400017473 4687566#0 -437207230 165265055#0 1082125455#1 -473733101#2 1082150047#0 -1042466504#7 -20170328#1 1051147172#1 1083606380#2 -129810095#2 1084242787#1 -20112449#1 453745831 704194085#0 -1080276501#1 914737889#1 399318544#0 689804569#1 399316913#0 1093210321#1 251360847 453745794#2 1072863586#2 398551722#1 20112623#7 463676555#5 477887848#1 806940755#1 -37852832#4 -103974910 354710422#1 399816159#2 1080292018#1 -1083350783 103974914#1 479290590 37953798#1 806947088 704196227 477544162#0 -4320471#7 1080078920 165217870#1 1090296249#1 372545211#0 561490746#0 455083970#1 1073080549#2 806947037#1 401059978#0 -4320471#12 1041940066#3 401056186#10 704214838#3 477794905#1 477895037#0 704189138#0 806940764#2 329988460#4 1080020856 1051147172#4 -456874546#1 1072839937#1 447792018#1 -1073075555#1 20112458#3 410971741#0 -20170647#1 -1041940066#1 1084242785#1 -41651763#1 891939730#1 859387907#1 165217829#4 -465411712#0 329384217#2 1093161746 859437626#0 187659378#3 1080024444 806940783#5 704189150#3 924892082 -165217870#2 1072863583 400022154 806940783#2 48432096#1 998268054#16 447793049 111771067#2 806940783#1 1083590187#1 -725230629#3 40337455#2 806947055#1 -991016331#0 -1072844436 992789477 1090296261 704194096#0 806940767#1 586136339#0 402436444#0 165217834#9 399761122#1 481492222#0 455083980#0 1093161750#0 806940749 1061395647 1084242795#3 401059980#3 992579641#0 401057258#1 409591789#2 477890299#0 1090298425#2 1051822951#10 664696778#1 475354376#1 398788227#0 402444865 998268054#1 623171068 456874546#1 -1080024436#1 401056186#2 -37852832#0 992801202#0 24237811 26716484 400000591#0 330150434#0 340606442#1 438912283#2 806940742#0 -24163564 1080053559#0 48680979#1 -23920574#1 1082164225#2 37918516 111771067#5 -150784846 103933645#0 481494040 806940756#4 463677565#1 806947053#3 766379896 165217827#2 1084242808#2 664696776 477767263#4 806940760#1 806947043#3 477885644#1 806947045#2 481492995#1 1080053555 806947074#3 -410971731#2 704189157#0 -1041940066#4 704194086#1 -766379892 1080292017#2 400881299#0 103896389#2 1084242797#0 1051822950#15 477767263#1 1080279608#1 -25367021#5 -20112792#4 366840862#18 -924892081#3 806954149#1 704189151#1 399739963#2 244648187#1 859382583#2 859521929#0 244648183#0 477895037#1 1080053562 401007230#1 1080020851#4 -673699710#4 704194124#0 -473733101#4 410971728#1 519711522#1 806940772#0 20178595#1 165265055#1 133806980#5 686625291#0 477794900#4 4320473#6 4320471#13 37852844 891939734#7 340606204 1072839940#1 806954139#0 244648192#2 410971738#3 35165799 401059974 41258974#1 859387902#0 313639760 1083606379#1 111771067#1 1080053560#1 806947094#3 1084242806#0 -165217829#4 1080055538#1 401056186#5 398547483#0 463679894#0 -573448690#1 806947039#0 1073073558#1 547462851#1 104224464#2 -1092570545 477893921#1 806947102#1 827050974#0 400003523#0 806947073#1 622860618#1 704194096#2 -37722302#1 -1026106360#1 1082161712#5 104456616#1 859382589 -1093671136 1082164225#1 -463676555#7 1080053561#0 -329694555#2 333292592 19683769#1 1084242795#2 37852841#1 19899281#0 1090296260#0 1072839941 37852830 477898504#0 806954141#1 104456616#3 477887846#1 1080024441#1 409591789#1 1080292017#1 -998268054#11 1051147172#6 1066503151#0 1080077826#3 -465408857#1 1084242799#0 399315908#1 859382585#0 313629696 1084242797#1 1051147172#9 329988459#8 -1080024437 806947071#1 1093364881#0 401059980#0 827050971#7 399318540#1 1080020850#2 104453157#0 477791107#0 924892081#1 38700726#1 21280706#3 337432401#4 112850606 1072839936#2 1072863582#0 477792455#2 -187659378#1 1080020854#2 -25366945#1 329694555#6 1093161751#2 165337364#11 104453157#1 1072844430#1 463677230#0 -1090298422#2 1080292017#0 337432404#2 -103521753#0 806940762#0 944264315 1051147172#5 -165337364#8 1093364883#1 187659378#2 401089325 806924890#0 -1041940066#6 400018685#1 455083976#0 -329384217#6 -40331155#0 165265055#8 891939735#0 1090298424#1 704189153#2 752898898 806947048#0 -103933645#1 827050971#4 1083552978#0 1080316574 -329694554#2 1072839936#3 337432398#1 1080287375 1080053566 463677230#3 37853176 1090296260#3 143920958#2 477767263#2 704194123#0 806947047#5 477544165#0 1084242788#1 1061395649 1084242795#4 19899281#1 244648182#1 1080077831#1 1073101739#0 -1083559347#0 806940758#0 704189150#6 398792509#0 400017474 398546114#1 704196228 859382586 1072839936#1 -165217827#1 4320471#7 -113861078#1 401059976 399316911#1 1061398995 806947092#0 -37722301#2 827050975#9 1080024435#1 -1083351562#0 704194108 329694555#3 806947037#2 479282838#0 455083984#2 806947104 -20170328#3 806947102#4 1061395643#0 806924903 48678925 25367028#4 337432399 -437207231 1073101739#1 -111771071#2 37722301#2 104224464#1 704194109 92352267#5 103521756#1 -410971729#0 402444860 -1072844433#1 704196234#1 1080292020#0 -465656094#1 806947056#1 704194132#8 1090298422#2 20112463#0 827050975#0 103974914#7 313629863#1 1080053558#0 399761122#0 479285591#1 41651763#1 704194131#1 1041940066#4 1080055532 4320471#12 1080285243 953108141#1 456874546#3 477894974#0 704196234#0 983430900#4 704194105#0 806947096 400910301 561490750#0 704194115#0 35165799-AddedOnRampEdge -936644262 398548183#0 1080055538#0 1090296241#1 477911580#1 403955590#5 400003523#1 340606207#2 806940751#1 792730002#1 806947051#1 107696154#0 -991016330#0 704189151#0 477794900#2 -104224464#2 1082150523#3 998268054#2 -41651763#0 479286963 891939734#0 1090296242#2 1080053554 1090296241#0 398553905 477792464 -410971738#3 -410971739 476967461#2 1061402109#1 704194120#0 1090296250#0 -92352263#3 340606205#0 340606622#0 401049135#2 477756777 477894974#1 704194101#0 1090296256#1 104224465#1 329694556#1 1073083270#0 -410971731#1 165325605#7 401007233 -454002562#1 1080024442#0 806940774 830969077#0 -409591789#2 103521753#2 704189152 1073073558#2 1083353195 41258974#2 447792019 -1051822950#15 1072863581#2 401063872 37852845#0 401097062#0 806947047#3 437207233 361815165#1 329384217#6 -25367021#6 22072949#1 244648189 806947039#1 -766379896 704196241 474555867#2 40332801 77688237 37918524 1084242811#1 1083564735#1 1080077825#0 704189157#1 806924893#1 -329384217#8 998268054#6 806924904#1 38343538 399319754 399739963#1 475354381#0 -111771067#2 -1051822951#5 -149633802#1 -657730343 103896396#5 -165217870#1 806924899 -354710423#1 402436449 1093161754#1 -25367021#1 561490748#0 -103521751#2 -455083994#2 704194118#2 944264314#0 1080292014#1 20112457#2 340606206 481496496#1 -465408862#2 806924890#4 121718668#0 806924892#1 41258974#0 -766379898 25367384 -40332814 -329988460#3 103896396#6 329988459#2 23920574#0 401056180 -329694554#3 -366836389#0 1072839933 1073101738#2 1080292019#0 30176670 410971732#2 1042466503#1 704194088#1 330150736#0 477887848#0 -25366945#0 122076218#4 22080579#1 891939736#1 673699710#1 401056173#1 164859458#0 401094634 244648183#1 1041940066#6 103521753#0 806947086 455713848#1 1080276501#1 476967462#1 1073080553#0 399739963#3 41651758#5 1051822950#12 41651761#1 165217839#2 4886314#3 574128268 463825907#2 -410971741#2 1080279609#1 475351847#3 1083570162#1 112850610 1072863580#0 -37807546 704194106#0 704196242 83823325#0 340606442#0 477890302#0 399316913#1 477885644#2 331907686-AddedOnRampEdge 477745733 -187659378#3 20170649#1 924892084 1083353194#0 1080077826#1 1051161290#2 -113861078#0 399761120#1 111771067#3 1080053550#3 1083552977 -399320068#1 806940752#0 400631732 399761112#0 401077109 400020215#0 1072844431 806947092#3 401059978#4 399761115 1075808445#1 -20112792#1 37997321#1 399814703#0 -165217827#2 983430903#1 1080053559#1 -1005378394#1 1084242786#0 477544170#1 1073083270#1 704189160#0 401056182 806940756#0 37956453 -103974916 401059980#1 1090296256#0 -1080024436#2 1061395642 401063874 41651758#3 1073080550#0 1073080552#1 689804569#4 481494294#0 620915578#1 704194112#0 400003523#2 111771070 -455713130#1 704194131#0 637895776#1 704194107#1 -477895037#1 134811808#1 20112793#0 455083979#1 830969078#0 481492405#0 402436446#0 1090298890#1 -103935601 -410971731#3 806947103#1 1090296259 1083353194#1 398792509#2 1061395644#2 477890304#0 477892158#0 607184015#4 992788852 1080020849#4 1084242802#0 673699710#2 806940761#0 111771067#4 1084242808#0 440536831 806940756#5 1073080556 1080020853#0 1093212182 806924901#2 1080077827#0 -451799493#1 361815165#4 806924900#3 -112850598 410971740#0 -352905266 455083981#1 806924908 352392846#1 859437626#1 25367021#4 37852845#1 986811740#1 -103521753#2 704194084#0 20112793#1 410971730 399320068#1 187659378#1 481492405#5 704194087#2 -333292597 704189149#0 859387903#0 -463676555#1 453745797#1 704194087#0 477745731 399816159#1 477791108#0 477544167#0 704194125#1 1073101735#1 704196233 -622860615#1 8140256#1 548252185#0 1090296246#1 704194100#0 1093361792#0 992803955#1 704196246#0 1080053560#0 1080053550#2 244648183#7 477773265#1 1051147172#7 -164831271 399164438 1080292019#1 164859458#1 477890300#0 924892081#3 1080053563#0 1084240081 -403959076 -936644261 37849001 992788854 1090296252 664696778#0 20170647#2 806947041#1 481493031#1 1090298425#0 37953798#0 103896396#1 1080077825#2 -112850606 401056174 859387912#1 455083994#1 859387912#0 704194132#3 -37997322 401059978#3 -998268055 357284633 -165217827#3 -409591789#1 1084242786#1 20112458#2 244648182#3 1080020849#2 401059072 77689003#3 477544166#2 1080292018#0 477894289#0 1080077831#2 1093161751#1 992801202#1 806940746#1 806940773#0 1083354143 37920508 481494291#0 477801314 -37838772 -37918514#0 859382583#1 806947051#5 473733101#4 25366817#1 -766379895 477887846#2 983430901#4 1080020853#1 -41691766#0 1041940066#1 -455722367#1 1080053557 704194097#0 477894931 165325605#5 1080268302#1 479286500 25367021#0 673699710#4 477792455#0 340605395#4 -40332813 401066191 806947056#4 399739969#0 399814706 -20112449#4 352905251#1 704194083#1 992788855 165325649#1 998268054#11 1084242804#0 -4320471#6 -1072844440#1 455712867#1 -456874546#2 519988968#0 914737889#2 1082161712#4 165217769 586136339#2 986811740#0 -20112467#2 704194118#0 477794895#1 1073101737#0 806947093#1 399739963#5 1080024439#0 481494963#1 20112451#3 244648184 -1041940066#8 401059981 1082157148#0 -165217829#1 447793021#0 1073075555#1 1083354147#1 -129810095#1 891939730#0 1072863586#1 704196226 398788227#1 -998268054#10 704189161 366840862#4 998268054#3 -111771067#3 25367021#3 806924900#2 806940764#7 704160396 113861078#0 1082939310 -37997315#3 975251637#0 784099214#1 35165792 1073080550#2 455083993#3 1083602293#2 400000594#0 1093161753#0 859521929#2 340606442#2 479285592#0 475351847#2 -586136340#0 986811743#5 331907542#2 806940744#0 725230629#1 637895751#1 4687566#2 143920958#0 -410971738#0 1093416729#1 399739965#2 -463677565#0 481494966#0 20112449#2 806940783#4 -1080274568#0 477767263#6 454002561#1 477887847#2 704194105#1 399681577 1084242804#1 329694555#5 340607254#0 -474555867#2 -455718964#0 -998268054#3 -20112451#3 401059978#1 704194120#1 1053723971#0 704196231 4687641#1 806940757#2 806947074#0 399739971 -1076378940 1072844440#1 402436451#0 128995360#6 1073101736 401056178 1072844430#0 165217770#0 492899792#1 113861079#1 1051161289#0 -1061395644#2 398697299 1082164227#1 -20112457#2 -20170647#2 -20112623#1 -37918518#1 -165325651#1 481493031#0 704194121#0 806924896 37997321#0 1080053565 340404422#0 40331091 686625290#7 104224464#3 -19899376#1 455722372#1 4687641#2 21280706#0 -1083353199 -37997326 20112792#1 1083570164#0 859387901#0 1073080555#0 399306578#2 330150434#2 806940764#5 806924894 1061398534#2 103974914#5 478156224 1093671136 1073080554 329067231#4 -1092570544#1 1061398537 1084242779 37997318 477794895#0 481494298#1 582400014#0 -620915580 704189147#1 704194104#0 607107357 1083552978#1 477794900#6 1026106360#1 330150435#6 41258976#3 806924902#0 150784846 410971731#3 398546122 77688236 620924945#0 41651758#1 859387902#2 165265055#2 -329694555#0 1005378394#2 330150435#9 484831716 806924893#0 1080053558#1 -111771070 330150434#5 481494962#1 686625290#0 686625290#6 -20112457#1 -447792018#1 1073101737#1 1080287379 -403955588#0 399814704#1 400116381#1 244648182#2 806947036#0 165265055#9 -1051822951#6 1090296249#4 40331155#2 704196235#0 806940765#1 1088444983#1 1090298422#3 37997317#1 401063873 366836388 477892159#1 766379921 806940764#3 1080018021#0 1083355342#1 1084242802#1 40337455#1 477745739#0 -1051822950#12 164859462 1066503153#1 1080285234 26026751#2 1051822951#11 806940757#1 582400011 1082143328#0 329694549 -103896389#1 1093364884 399735150#0 704194132#5 827050971#0 806947038#3 20112466#1 1061395652#0 1090296250#1 -352392846#1 1073073559 48680974#0 992789478 477892159#0 992772306 -37918516 -447792019 159274204 806947044#0 -165325650#1 1093364881#1 479286501#1 37918515#1 582400012#0 806924904#0 361815164#1 455722367#1 -37997315#2 477544167#1 859521931#3 333292597 1083570163#0 688476099 806940751#4 983430900#1 165325605#1 37954103#2 891939731#2 -41651758#3 1084242792#1 19683769#3 410971732#3 1080261863#1 1083601535 402436443 806924892#0 -329694555#7 1090298428#3 -465408864#0 399739965#0 -20112623#4 337432404#1 806947045#1 -673699710#2 859387904#0 546047309#2 -329988460#1 38340522 -766379902 451799493#0 806954144#1 -474555863#1 1083572691#0 806947058#0 806940773#3 992801204 704189151#2 1051147172#10 -30176670 806947092#2 40325365#1 766379892 573448690#1 -1042466504#4 19912269 620924945#1 806954143 1083353196 1093161747 331907542#4 -340404422#1 410971728#2 704189150#7 806947041#0 704189150#2 -354710557#1 -465649967#3 -1041940066#3 399739961#1 453964887#0 1093416733 704189158 -40332801 -991016330#1 453949528 998268054#21 1092570544#1 -975251637#2 403955590#4 129587033 1080292018#2 -329067231#4 -410971728#1 329384217#8 1073080555#1 454002562#1 586136340#0 477905830 473733101#2 1082161712#6 340606311#1 1082154097#2 806947035#2 477794900#3 1080024438#1 477794905#0 806940747#1 806947042#0 1005374740#1 1080287374 1082150047#1 1092570545 704194086#2 477890641 704194083#0 477893921#0 129810095#2 637895767#0 998268054#5 1080078917 1090296253#0 1080078921#1 704194116#0 -1051822951#7 398548183#1 401049133 401089455#0 410971740#1 477544163#1 1061398536 944264313#0 806947112#1 410971731#4 918602131#1 704194106#1 1084242801#2 -806954136#1 103521741#1 953108141#8 806947074#1 547462850 455713130#2 936644262 -410971741#1 -465408862#1 704160395 1050419191#1 19899374#2 1082143328#1 -329694558 37997322 -20112451#4 1005378394#1 -410971738#4 410971740#2 402442550 -456353760#1 479286506#1 329988460#3 -998268054#18 704196229 1093179048 479293888 77689003#2 830969078#1 400874848#2 -20112451#1 1073106705#1 4320471#6 244648183#5 766379902 859382588#0 -1093416729#1 410971738#4 4320471#11 -329988460#4 474555863#0 992801201#1 -122076218#4 410971735 -1090298422#1 637889794 354710422#0 -1051822951#8 -399320068#3 244648190#0 606863916#0 165217827#1 733125585#1 465408862#4 -456874546#3 92352267#4 1084242792#3 -1080053548 400910534#1 340606207#0 -792959186#0 477799909#1 727849147#0 401007231#0 366840862#1 1080053549#0 463677563#1 998268054#7 410971732#0 1080055530 546047308#1 704214838#2 1082164227#2 410971737 1080024439#1 165337364#9 1061395644#1 329694553#1 806940748#0 330150434#1 -37997318 998268054#13 -40331155#2 330150434#8 37918523 40325365#0 477791109 -1080279608#1 477794413 -39442470#0 -399320803 806947092#1 991016330#1 366840862#9 -463677563#1 992797514 1042466503#2 637889792 477799909#0 704189145#0 331907543#2 475354381#1 -25366817#1 165264485#1 733125585#6 792959186#0 -165325605#7 329694555#1 -766379923 1061395643#3 830969077#1 340605395#1 398557959#1 477791108#1 806947087 1080053550#4 -330153470#0 103974916 340605395#5 561490748#1 1051822951#6 -410971741#0 -410971727 481492220#0 1093161745#1 465408862#2 1080024443 37997315#1 -477759702#1 -585607474 399315909#1 806947115#0 48678910#1 20112452#1 -138758354 133806980#1 806947038#2 -25367021#3 41691766#1 -451800246#1 806924906#1 -410971732#2 43710576#0 401077114 479286735#0 806940701#1 1080055531 1083353193#2 1082157148#3 637895754#1 447793020#1 -134811810#6 1050419190#1 465408860#0 704194102 -463677565#1 806947038#1 1083606380#3 -165325651#0 704196240 479286504 402444862 1080053995 347724256 806940755#2 477894137 -1090298422#3 20112458#1 340606442#3 401083643#0 1075808526 -409591789#0 340605395#2 1080279610 48678910#0 477892161#0 -1073075557#1 -453745799 48678926 1080274568#0 936656920 859382580#1 1083606378#0 398546113 1093161748#0 1051147172#13 1082154097#1 -410971740#2 463676555#7 891939731#0 1080020852#0 475351847#4 806940746#0 165265049#4 37838772 451800246#1 686625291#1 1080020851#5 20170325 -25367028#4 704189165 704194091#1 465408857#2 1050419190#2 1083353192#0 1083606380#5 477759702#1 331907542#3 1090298428#2 463677565#0 26026532#1 352905247#1 401049136#1 -792730001#1 1080020852#1 1072844440#0 1061398534#0 -41258976#2 -103935602#0 95427590 1073106709 1061395650 704189162 806924889#1 400007622#1 -473733101#3 1051822951#7 -37722301#3 399318543#1 465653665#1 329694555#4 337432404#3 704196243#0 329694556#0 -399320068#2 704194095#0 477801456 582400016 637895783#1 806940755#3 77689007#1 704194113#0 447793021#1 20112451#1 704189159 -410971730 1084242781#2 165217827#4 806940750#0 -165325651#2 704194122#0 -37849001 806947062 704194128#0 479290589 704194112#1 -104224465#1 -410971736#0 1080077831#0 998268054#10 20170328#2 165217834#0 1080053550#1 992806120#0 -437207233 975251637#1 438912283#0 -37918518#2 20112451#5 451800246#0 -41258974#0 401056186#12 -455083993#0 704194115#1 1061398997#4 96268485#0 891939737#0 1083606380#4 1093210321#0 477792455#3 -107696154#0 477890304#2 37997315#3 704194093#0 -37956453 244492478 992806120#1 -20170649#1 -406830689 -165337364#12 1090298890#3 165265049#3 1083354145 474555867#0 331907543#4 704189149#1 704194094#3 400907085 -143920958#2 48678911#5 -41651758#1 465653673 479286503#1 1083606378#1 478155028 330150435#1 331907543#3 399318540#0 477544164#2 806947114#2 244648195#3 244648193 806940752#1 1083606380#1 24163564 4320473#2 573448691#0 -20170650 477794896#1 891939734#4 4687641#7 827050975#1 1090298428#0 637895751#2 806924905 -25367021#2 806947102#2 165217827#3 -463677230#2 -607184015#5 806947051#0 -464717443#0 403955590#2 -4320471#14 704194123#1 1093364882 477911578#1 1083564735#4 806947049#0 37997315#0 -1080024435#1 -347724804 4872827 329694554#4 477799288 1090298424#0 1090298888#1 492899793#0 704194104#1 704214838#1 354710416#1 103896389#1 329694558 401083643#1 1073083268 -104224464#3 20112442#1 -1073103903#0 1080024442#1 1073106708 134811810#6 453745802 1080053552 733125585#4 1072839940#0 23920574#1 1084242799#3 -463677230#3 133806981#4 477767263#7 1050419193 329988459#3 704194129#1 330150434#7 399739963#4 827050971#1 -792730001#0 573448691#2 477913128#0 -998268054#20 -1092666574#1 244648192#1 1083559347#1 561490746#1 960188218#1 1051147172#16 806924897 -21280706#4 806947040#2 474841415#0 1072863579#1 477885644#0 477799904 112850607 766379894 1093361792#1 1090296260#7 -329067231#5 1072863586#0 -447793050 37722302#1 806940750#1 -453745794#2 -453745821#0 25367028#5 477802150 -1073079250 1090296260#4 244648182#0 806947054#0 827050974#1 1084242805 704189156#1 37852832#2 1083353575 428978765#1 464717443#0 1084240079#6 -37852832#1 1088444985 -998268054#2 1072839937#0 1084242820 -455722372#1 1084242794#1 806940771#2 704194097#1 806940783#3 340606622#2 1083570164#1 -347287633 244648182#4 399318543#0 -103521751#1 1093361789 4687632#1 1072839932#0 4320473#1 1090298427#1 347724804 -1080275591#1 1073075555#3 399318540#3 399318544#1 329693416 -37920508 399735150#1 910121015 477912389#0 859521929#3 354710416#0 -784099214#1 455083993#0 25366945#0 1084242782#0 -1080024436#0 -998268054#5 479282838#1 -21280706#0 -463676555#5 -165217829#0 399739963#0 134811810#5 366836391#0 1093161752 704196243#1 975251637#2 401077117#0 401077111 766379922 704214838#4 -1051822951#12 25367021#2 399307655 704194082#1 244648190#1 -329694554#10 399320068#0 806940759#0 704194085#1 -1073101737#0 -40337455#2 806940748#1 129587031 806940775#0 -20112440#1 -111771071#3 -20112443#2 1090296255#1 1083353193#1 806947049#1 1082164225#0 -41258974#2 401056185 -766379891 704196244#0 -329694554#5 1084242788#0 704194089 1051161289#1 1051161290#0 1082143328#3 402444859 1080285241#1 -1093416733 -103933645#0 1093161753#1 -37918512 806954149#0 891939735#1 401056175 477890301 859382585#1 377233441#0 1080292016#1 1080024436#0 313629863#0 330150435#0 -329694553#2 329988460#1 561490744 -113861078#3 766379891 1083602293#3 806940759#1 41651757 1093210323 340606208#1 477544160 4886314#1 20112439#1 330150435#8 112850605 399318544#2 164831271 -361815166#0 704196238#1 165217834#1 476967461#0 1071762898#1 -998268054#13 1082150047#2 1080275591#1 20112427#9 77689003#1 1093161751#0 398551722#0 231387460#0 -410971740#0 548252185#1 -4320471#10 806924911#2 991016331#1 1088224493#1 728796869#0 -329694554#0 20112467#1 400874852#0 -37997315#0 998268054#20 25366817#0 330153470#0 400003524 1084242808#1 77688246 806947040#4 1088224493#0 -924892081#1 924892083 953108141#0 337432405 354710423#1 1072863582#1 103521745#1 200638835#2 399730541#1 1093361790 806940770#2 118116148 103521745#0 20112623#1 331907543#1 -1093161745#1 -410971734 481492220#1 37918514#1 806947043#2 20112461#1 1080024441#2 -37997319 330150435#5 1090296244#1 1084242818#2 637895770#1 1061398538#1 165217772#1 481494962#0 -975251637#0 1073073558#0 399320068#3 293883673#0 20112449#1 461254932#1 -673699710#1 165337364#10 41258976#4 -451799493#0 133806980#4 918602130 165325650#1 806940776#0 1090296247 165265055#3 143920958#1 -37918515#0 477894289#1 231387458#2 477544157 859387910#3 330153470#1 704189150#1 704194092#1 -1092570544#2 477911580#3 477544170#0 -399320068#0 403955588#0 475351847#0 40325346 704194086#0 399318540#2 401056186#4 410971732#1 1080268302#0 477767263#0 20112463#1 -410971738#2 -244648193 400910592 1090296253#1 410971736#0 704189156#0 827050975#7 406830687 1080053564 244648195#1 399761112#1 806940744#1 399318539#3 400020216#1 1072839936#8 401056183 473733101#1 37918514#0 20112463#2 688476254#0 453745821#1 1084242816#0 477544158 -37997321#1 1051161290#1 -38700726#1 -463677569#0 41258973#1 477773266#1 1075811262 1080077826#2 477890299#2 704196245#0 1080285237 474555858 859387910#2 399320803 1083351562#0 37918512 479285593#1 -437207232 1042466503#0 1084242789 806947091#0 455718965#1 806947047#4 686625290#12 708576050 806947044#1 -455722369#0 1080024436#1 1084242804#2 -165217827#4 -447792018#0 -159274222 352905253 403955588#2 806924892#2 -573448691#1 1083354144 410971741#2 986811740#4 477773265#0 92352267#6 410971741#1 377233442 37852846#1 481496497#3 134811810#2 437207230 329694552#0 37807547#0 398546121#0 41651758#2 1080268302#2 766379901 329694552#1 391085483#1 465408857#1 476168460#0 1090296249#0 103933645#1 519711522#0 -104224465#2 1080261659 401089227#0 1061395643#1 401099878#0 891939736#