<?xml version="1.0" encoding="UTF-8"?>

<!-- generated on 2022-11-18 19:19:35 by Eclipse SUMO netconvert Version 1.14.1
<configuration xmlns:xsi="http://www.w3.org/2001/XMLSchema-instance" xsi:noNamespaceSchemaLocation="http://sumo.dlr.de/xsd/netconvertConfiguration.xsd">

    <input>
        <type-files value="C:\Program%20Files%20(x86)\Eclipse\Sumo\/data/typemap/osmNetconvert.typ.xml,C:\Program%20Files%20(x86)\Eclipse\Sumo\/data/typemap/osmNetconvertBicycle.typ.xml,C:\Program%20Files%20(x86)\Eclipse\Sumo\/data/typemap/osmNetconvertPedestrians.typ.xml"/>
        <osm-files value="osm_bbox.osm.xml"/>
    </input>

    <output>
        <output-file value="osm.net.xml"/>
        <output.street-names value="true"/>
        <output.original-names value="true"/>
        <ptstop-output value="osm_stops.add.xml"/>
        <ptline-output value="osm_ptlines.xml"/>
        <parking-output value="osm_parking.xml"/>
    </output>

    <projection>
        <proj.utm value="true"/>
    </projection>

    <processing>
        <geometry.remove value="true"/>
        <roundabouts.guess value="true"/>
    </processing>

    <tls_building>
        <tls.discard-simple value="true"/>
        <tls.join value="true"/>
        <tls.guess-signals value="true"/>
        <tls.default-type value="actuated"/>
    </tls_building>

    <ramp_guessing>
        <ramps.guess value="true"/>
    </ramp_guessing>

    <edge_removal>
        <keep-edges.components value="1"/>
        <remove-edges.isolated value="true"/>
    </edge_removal>

    <junctions>
        <no-internal-links value="false"/>
        <no-turnarounds value="false"/>
        <no-turnarounds.tls value="false"/>
        <no-turnarounds.geometry value="true"/>
        <no-turnarounds.except-deadend value="true"/>
        <no-turnarounds.except-turnlane value="false"/>
        <no-turnarounds.fringe value="true"/>
        <junctions.join value="true"/>
        <junctions.join-dist value="10"/>
        <junctions.join-same value="true"/>
        <junctions.corner-detail value="5"/>
        <junctions.internal-link-detail value="5"/>
        <check-lane-foes.roundabout value="true"/>
    </junctions>

    <pedestrian>
        <sidewalks.guess value="false"/>
        <sidewalks.guess.max-speed value="13.89"/>
        <sidewalks.guess.min-speed value="5.8"/>
        <sidewalks.guess.from-permissions value="false"/>
        <crossings.guess value="true"/>
        <crossings.guess.speed-threshold value="13.89"/>
        <walkingareas value="false"/>
        <walkingareas.join-dist value="15"/>
    </pedestrian>

    <bicycle>
        <bikelanes.guess value="false"/>
        <bikelanes.guess.max-speed value="22.22"/>
        <bikelanes.guess.min-speed value="5.8"/>
        <bikelanes.guess.from-permissions value="false"/>
    </bicycle>

    <railway>
        <railway.signals.discard value="false"/>
        <railway.topology.repair value="true"/>
        <railway.topology.repair.connect-straight value="true"/>
        <railway.topology.repair.stop-turn value="true"/>
        <railway.topology.all-bidi value="false"/>
        <railway.topology.direction-priority value="false"/>
        <railway.access-distance value="150"/>
        <railway.max-accesses value="5"/>
        <railway.access-factor value="1.5"/>
    </railway>

    <formats>
        <osm.skip-duplicates-check value="false"/>
        <osm.elevation value="true"/>
        <osm.stop-output.length value="25"/>
        <osm.stop-output.length.bus value="15"/>
        <osm.stop-output.length.tram value="25"/>
        <osm.stop-output.length.train value="200"/>
        <osm.all-attributes value="false"/>
    </formats>

    <report>
        <verbose value="true"/>
    </report>

</configuration>
-->

<additional xmlns:xsi="http://www.w3.org/2001/XMLSchema-instance" xsi:noNamespaceSchemaLocation="http://sumo.dlr.de/xsd/additional_file.xsd">
    <busStop id="-1071760807" name="Sherbrooke / Metcalfe" lane="-453741481_1" startPos="44.15" endPos="59.15" friendlyPos="true" lines="24-O 104-O"/>
    <busStop id="-213481727" name="Côte-des-Neiges" lane="-66092957_0" startPos="8405.95" endPos="8605.95" friendlyPos="true">
        <access lane="463878770#1_0" pos="789.11" length="265.07" friendlyPos="1"/>
    </busStop>
    <busStop id="-213613384" name="Snowdon" lane="-66092957_0" startPos="9623.88" endPos="9723.88" friendlyPos="true">
        <access lane="-933328174#4_0" pos="87.76" length="109.62" friendlyPos="1"/>
        <access lane="20194967_0" pos="101.29" length="23.31" friendlyPos="1"/>
        <access lane="933328165_0" pos="94.67" length="81.02" friendlyPos="1"/>
        <access lane="933328172#1_0" pos="117.10" length="113.05" friendlyPos="1"/>
        <access lane="933328174#2_0" pos="115.86" length="85.92" friendlyPos="1"/>
    </busStop>
    <busStop id="-213656965" name="Édouard-Montpetit" lane="-66092957_0" startPos="6677.00" endPos="6877.00" friendlyPos="true"/>
    <busStop id="-214042695" name="Acadie" lane="-66092957_0" startPos="4724.84" endPos="4924.84" friendlyPos="true"/>
    <busStop id="-214052252" name="Parc" lane="-66092957_0" startPos="3803.11" endPos="4003.11" friendlyPos="true"/>
    <busStop id="-214052255" name="De Castelnau" lane="-66092957_0" startPos="3158.36" endPos="3358.36" friendlyPos="true"/>
    <busStop id="-214052275" name="Fabre" lane="-66092957_0" startPos="1537.31" endPos="1737.31" friendlyPos="true"/>
    <busStop id="-214052280" name="D’Iberville" lane="-66092957_0" startPos="705.23" endPos="905.23" friendlyPos="true"/>
    <busStop id="-218271645" name="Saint-Michel" lane="-66092957_0" startPos="0.00" endPos="100.00" friendlyPos="true"/>
    <busStop id="-2484400447" name="de Monkland / Girouard" lane="-933008493#2_1" startPos="49.71" endPos="58.40" friendlyPos="true" lines="162-E"/>
    <busStop id="-29482323" name="Université-de-Montréal" lane="-66092957_0" startPos="7518.68" endPos="7718.68" friendlyPos="true"/>
    <busStop id="-3152550118" name="Somerled / Cavendish" lane="-1079644682#2_1" startPos="41.52" endPos="56.52" friendlyPos="true" lines="102-E"/>
    <busStop id="-3153668832" name="Fielding / Hingston" lane="-1082402419#0_2" startPos="25.89" endPos="40.89" friendlyPos="true" lines="51-O"/>
    <busStop id="-3169830806" name="Queen-Mary / Victoria" lane="-463870724#1_1" startPos="0.00" endPos="14.24" friendlyPos="true" lines="51-E"/>
    <busStop id="-3184087237" name="Queen-Mary / Roslyn" lane="-20188675#8_1" startPos="54.54" endPos="69.54" friendlyPos="true" lines="51-E"/>
    <busStop id="-3184087238" name="Institut de Gériatrie (Queen-Mary/Cedar Crescent)" lane="-20188675#2_1" startPos="35.44" endPos="50.44" friendlyPos="true" lines="51-E"/>
    <busStop id="-3324368265" name="de Monkland / de Melrose" lane="-463864541#2_1" startPos="17.55" endPos="32.55" friendlyPos="true" lines="162-E"/>
    <busStop id="-3324368266" name="de Monkland / Harvard" lane="-463864539_1" startPos="60.24" endPos="75.24" friendlyPos="true" lines="162-E"/>
    <busStop id="-4051678441" name="de Monkland / Marcil" lane="-463864591_1" startPos="53.31" endPos="68.31" friendlyPos="true" lines="162-E"/>
    <busStop id="-4367816203" name="Somerled / Grand Boulevard" lane="-159034396#0_1" startPos="47.60" endPos="62.60" friendlyPos="true" lines="102-E"/>
    <busStop id="-437811772" name="Côte-Sainte-Catherine" lane="-1082752884#0_0" startPos="1229.17" endPos="1329.17" friendlyPos="true">
        <access lane="-480342542_0" pos="8.92" length="17.16" friendlyPos="1"/>
        <access lane="479688352_0" pos="83.05" length="28.06" friendlyPos="1"/>
        <access lane="480342542_0" pos="82.68" length="3.06" friendlyPos="1"/>
        <access lane="997242869#0_0" pos="10.81" length="4.27" friendlyPos="1"/>
        <access lane="997242870_0" pos="8.05" length="21.01" friendlyPos="1"/>
    </busStop>
    <busStop id="-437811806" name="Villa-Maria" lane="-1082752886_0" startPos="2920.85" endPos="3120.85" friendlyPos="true">
        <access lane="933071115#0_0" pos="0.00" length="25.15" friendlyPos="1"/>
        <access lane="933071117#2_0" pos="19.19" length="17.06" friendlyPos="1"/>
        <access lane="933071117#3_0" pos="0.00" length="17.98" friendlyPos="1"/>
        <access lane="933071121_0" pos="0.00" length="9.17" friendlyPos="1"/>
        <access lane="993362118_0" pos="4.21" length="18.07" friendlyPos="1"/>
    </busStop>
    <busStop id="-437811839" name="Vendôme" lane="-1082752886_0" startPos="1479.70" endPos="1679.70" friendlyPos="true">
        <access lane="960611536_0" pos="4.90" length="5.95" friendlyPos="1"/>
        <access lane="960611537_0" pos="0.00" length="2.41" friendlyPos="1"/>
        <access lane="960611538_0" pos="0.00" length="6.32" friendlyPos="1"/>
        <access lane="960611544_0" pos="0.00" length="4.99" friendlyPos="1"/>
        <access lane="960611545_0" pos="0.00" length="2.79" friendlyPos="1"/>
    </busStop>
    <busStop id="-437811884" name="Place Saint-Henri" lane="-1082752886_0" startPos="0.00" endPos="100.00" friendlyPos="true"/>
    <busStop id="-4380897966" name="de Monkland / Hingston" lane="-463864074#5_1" startPos="60.86" endPos="75.86" friendlyPos="true" lines="162-E"/>
    <busStop id="-5106483237" name="Station Vendôme" lane="-608430715#2_1" startPos="13.54" endPos="28.54" friendlyPos="true" lines="105-E"/>
    <busStop id="-5106483237@9320654" name="Station Vendôme" lane="-455042507#0_1" startPos="0.00" endPos="6.06" friendlyPos="true" lines="102-E"/>
    <busStop id="-5228487329" name="Jean-Talon" lane="-66092957_0" startPos="2451.80" endPos="2651.80" friendlyPos="true"/>
    <busStop id="-5527782063" name="de Monkland / Royal" lane="-463864074#1_1" startPos="37.48" endPos="52.48" friendlyPos="true" lines="162-E"/>
    <busStop id="-6010963032" name="Sherbrooke / Strathcona" lane="-453727319#5_1" startPos="78.68" endPos="90.61" friendlyPos="true" lines="24-O 104-O"/>
    <busStop id="-6010964199" name="Kildare / Merrimac" lane="-1079474386#0_1" startPos="83.11" endPos="98.11" friendlyPos="true"/>
    <busStop id="-6010964261" name="Sherbrooke / Kitchener" lane="-474838162_1" startPos="0.00" endPos="8.50" friendlyPos="true" lines="24-O 104-O"/>
    <busStop id="-6010964556" name="Côte-Sainte-Catherine / de Westbury" lane="-933360238#6_1" startPos="160.27" endPos="170.55" friendlyPos="true" lines="129-N"/>
    <busStop id="-6010964901" name="de Monkland / Madison" lane="-463844969#1_1" startPos="54.05" endPos="69.05" friendlyPos="true" lines="162-E"/>
    <busStop id="-6010965197" name="Sherbrooke / Claremont" lane="-463622074#0_1" startPos="117.40" endPos="132.40" friendlyPos="true" lines="24-O"/>
    <busStop id="-6010965230" name="Somerled / Côte-Saint-Luc" lane="-453506595#2_1" startPos="57.65" endPos="65.15" friendlyPos="true" lines="102-E"/>
    <busStop id="-6010965554" name="Sainte-Catherine / Irvine" lane="-422633541#0_1" startPos="19.69" endPos="34.69" friendlyPos="true" lines="90-E"/>
    <busStop id="-6010966191" name="The Boulevard / Westmount" lane="-825948056#3_1" startPos="61.59" endPos="76.59" friendlyPos="true" lines="66-N"/>
    <busStop id="-6010966388" name="Somerled / Borden" lane="-1082404464#4_1" startPos="54.31" endPos="69.31" friendlyPos="true" lines="102-E"/>
    <busStop id="-6010967463" name="Somerled / Wilson" lane="-165214768#3_1" startPos="70.18" endPos="85.18" friendlyPos="true" lines="102-E"/>
    <busStop id="-6010968386" name="Sherbrooke / Lansdowne" lane="-453727319#2_1" startPos="71.89" endPos="86.89" friendlyPos="true" lines="24-O 104-O"/>
    <busStop id="-6010968515" name="Sainte-Catherine / Béthune" lane="-422633541#9_1" startPos="0.00" endPos="7.70" friendlyPos="true" lines="90-E"/>
    <busStop id="-6010968656" name="Somerled / Hampton" lane="-165214768#9_1" startPos="0.00" endPos="13.02" friendlyPos="true" lines="102-E"/>
    <busStop id="-6010969149" name="Le Boulevard / Edgehill" lane="-825948056#1_1" startPos="90.54" endPos="105.54" friendlyPos="true" lines="66-N"/>
    <busStop id="-6010969511" name="de Monkland / Grand Boulevard" lane="-463844968_1" startPos="64.93" endPos="79.93" friendlyPos="true" lines="162-E"/>
    <busStop id="-6010970368" name="Le Boulevard / Clarke" lane="-453749090_1" startPos="77.24" endPos="92.24" friendlyPos="true" lines="66-N"/>
    <busStop id="-6010970596" name="Sherbrooke / Redfern" lane="-1010236636#3_1" startPos="24.06" endPos="39.06" friendlyPos="true" lines="24-O 104-O"/>
    <busStop id="-6010970831" name="De Maisonneuve / Bulmer" lane="-199124593#2_1" startPos="24.73" endPos="37.18" friendlyPos="true" lines="90-E"/>
    <busStop id="-6010971103" name="Le Boulevard / Renfrew" lane="-20184585#8_1" startPos="61.37" endPos="76.37" friendlyPos="true" lines="66-N"/>
    <busStop id="-6010972753" name="Le Boulevard / Grosvenor" lane="-20184585#0_1" startPos="43.22" endPos="58.22" friendlyPos="true" lines="66-N"/>
    <busStop id="-6010973675" name="Somerled / Madison" lane="-1082404464#2_1" startPos="82.63" endPos="97.63" friendlyPos="true" lines="102-E"/>
    <busStop id="-6010973946" name="Le Boulevard / Lansdowne" lane="-20184585#2_1" startPos="28.61" endPos="43.61" friendlyPos="true" lines="66-N"/>
    <busStop id="-6010975612" name="Côte-Saint-Paul / Saint-Ambroise" lane="-450117494#1_1" startPos="13.15" endPos="28.15" friendlyPos="true" lines="36-O"/>
    <busStop id="-6010975976" name="Côte-Saint-Paul / Sainte-Marie" lane="-450117494#5_1" startPos="70.85" endPos="85.85" friendlyPos="true" lines="36-O"/>
    <busStop id="-6010976711" name="Station Vendôme" lane="-608430715#1_1" startPos="7.49" endPos="22.49" friendlyPos="true" lines="90-E"/>
    <busStop id="-6010976759" name="Côte-Sainte-Catherine / Lemieux" lane="-933360238#9_1" startPos="101.05" endPos="111.24" friendlyPos="true" lines="129-N"/>
    <busStop id="-6010978009" name="Le Boulevard / Belmont" lane="-20184585#5_1" startPos="66.88" endPos="81.88" friendlyPos="true" lines="66-N"/>
    <busStop id="-6010978075" name="Heywood / Sabin" lane="-1079524206#2_1" startPos="188.09" endPos="196.51" friendlyPos="true"/>
    <busStop id="-6010978143" name="Sherbrooke / de Vendôme" lane="-453725263#2_1" startPos="61.32" endPos="76.32" friendlyPos="true" lines="24-O"/>
    <busStop id="-6010978265" name="Sherbrooke / Victoria" lane="-453725261_1" startPos="67.80" endPos="82.80" friendlyPos="true" lines="24-O 104-O"/>
    <busStop id="-6010979094" name="Le Boulevard / Mount-Pleasant" lane="-453749091#1_1" startPos="28.39" endPos="38.71" friendlyPos="true" lines="66-N"/>
    <busStop id="-6010980487" name="Le Boulevard / Victoria" lane="-453998154#2_1" startPos="71.55" endPos="81.03" friendlyPos="true" lines="66-N"/>
    <busStop id="-6010981074" name="Sherbrooke / Décarie" lane="-454309327#2_1" startPos="46.17" endPos="57.74" friendlyPos="true" lines="24-O"/>
    <busStop id="-6010981256" name="Somerled / Draper" lane="-165214768#5_1" startPos="35.77" endPos="50.77" friendlyPos="true" lines="102-E"/>
    <busStop id="-6615974727" name="Snowdon" lane="-1082752884#0_0" startPos="339.08" endPos="539.08" friendlyPos="true">
        <access lane="-933328174#4_0" pos="98.25" length="75.23" friendlyPos="1"/>
        <access lane="20194967_0" pos="111.76" length="57.71" friendlyPos="1"/>
        <access lane="933328165_0" pos="104.95" length="46.49" friendlyPos="1"/>
        <access lane="933328172#1_0" pos="106.72" length="78.59" friendlyPos="1"/>
        <access lane="933328174#2_0" pos="105.37" length="51.53" friendlyPos="1"/>
    </busStop>
    <busStop id="-6975099127" name="Outremont" lane="-66092957_0" startPos="5500.25" endPos="5700.25" friendlyPos="true"/>
    <busStop id="-7159795395" name="Vendôme" lane="-35359869#0_0" startPos="0.00" endPos="118.91" friendlyPos="true">
        <access lane="-1082936909_0" pos="16.51" length="9.22" friendlyPos="1"/>
        <access lane="1082936909_0" pos="0.00" length="13.76" friendlyPos="1"/>
        <access lane="1082936910_0" pos="0.20" length="10.83" friendlyPos="1"/>
        <access lane="1082936911#10_0" pos="20.53" length="6.03" friendlyPos="1"/>
        <access lane="653439886#3_0" pos="108.18" length="11.20" friendlyPos="1"/>
    </busStop>
    <busStop id="-9862694906" name="Villa-Maria" lane="-1075387555#2_0" startPos="0.00" endPos="100.00" friendlyPos="true">
        <access lane="933071115#0_0" pos="0.00" length="21.25" friendlyPos="1"/>
        <access lane="933071117#2_0" pos="19.19" length="20.97" friendlyPos="1"/>
        <access lane="933071117#3_0" pos="0.00" length="21.74" friendlyPos="1"/>
        <access lane="933071121_0" pos="0.00" length="13.04" friendlyPos="1"/>
        <access lane="993362118_0" pos="4.21" length="18.01" friendlyPos="1"/>
    </busStop>
    <busStop id="-98949380" name="Vendôme" lane="-35359869#0_0" startPos="214.08" endPos="414.08" friendlyPos="true">
        <access lane="-931545032#0_0" pos="23.88" length="35.20" friendlyPos="1"/>
        <access lane="653439886#0_0" pos="0.55" length="12.96" friendlyPos="1"/>
        <access lane="653439887_0" pos="0.38" length="5.14" friendlyPos="1"/>
        <access lane="931538627#0_0" pos="24.28" length="31.22" friendlyPos="1"/>
        <access lane="931545005_0" pos="51.24" length="31.49" friendlyPos="1"/>
    </busStop>
    <busStop id="1071760806" name="Sherbrooke / Metcalfe" lane="453727318_1" startPos="99.46" endPos="114.46" friendlyPos="true" lines="24-E"/>
    <busStop id="213481727" name="Côte-des-Neiges" lane="1075356857_0" startPos="0.00" endPos="163.60" friendlyPos="true" lines="5">
        <access lane="463878770#1_0" pos="789.11" length="265.07" friendlyPos="1"/>
    </busStop>
    <busStop id="213613384" name="Snowdon" lane="1075356857_0" startPos="0.00" endPos="63.75" friendlyPos="true" lines="5">
        <access lane="-933328174#4_0" pos="87.76" length="109.62" friendlyPos="1"/>
        <access lane="20194967_0" pos="101.29" length="23.31" friendlyPos="1"/>
        <access lane="933328165_0" pos="94.67" length="81.02" friendlyPos="1"/>
        <access lane="933328172#1_0" pos="117.10" length="113.05" friendlyPos="1"/>
        <access lane="933328174#2_0" pos="115.86" length="85.92" friendlyPos="1"/>
    </busStop>
    <busStop id="213656965" name="Édouard-Montpetit" lane="1075356857_0" startPos="0.00" endPos="163.60" friendlyPos="true" lines="5"/>
    <busStop id="214042695" name="Acadie" lane="1075356857_0" startPos="0.00" endPos="163.60" friendlyPos="true" lines="5"/>
    <busStop id="214052252" name="Parc" lane="1075356857_0" startPos="0.00" endPos="163.60" friendlyPos="true" lines="5"/>
    <busStop id="214052255" name="De Castelnau" lane="1075356857_0" startPos="0.00" endPos="163.60" friendlyPos="true" lines="5"/>
    <busStop id="214052275" name="Fabre" lane="1075356857_0" startPos="0.00" endPos="163.60" friendlyPos="true" lines="5"/>
    <busStop id="214052280" name="D’Iberville" lane="1075356857_0" startPos="0.00" endPos="163.60" friendlyPos="true" lines="5"/>
    <busStop id="218271645" name="Saint-Michel" lane="1075356857_0" startPos="0.00" endPos="163.60" friendlyPos="true" lines="5"/>
    <busStop id="2459801755" name="de Monkland / Royal" lane="463864075#2_1" startPos="57.27" endPos="72.27" friendlyPos="true" lines="162-O"/>
    <busStop id="2484399635" name="Girouard / de Monkland" lane="933008463#1_0" startPos="12.53" endPos="27.31" friendlyPos="true"/>
    <busStop id="2484399636" name="Girouard / de Monkland" lane="996726681_0" startPos="0.00" endPos="7.70" friendlyPos="true"/>
    <busStop id="2682145767" name="Clanranald / Côte-Saint-Luc" lane="1079002507#1_2" startPos="11.80" endPos="24.06" friendlyPos="true"/>
    <busStop id="2682145771" name="Clanranald / Snowdon" lane="474592294#0_2" startPos="5.78" endPos="19.88" friendlyPos="true"/>
    <busStop id="2682145780" name="Côte-Saint-Luc / Clanranald" lane="453506593#8_1" startPos="9.66" endPos="19.85" friendlyPos="true"/>
    <busStop id="29482323" name="Université-de-Montréal" lane="1075356857_0" startPos="0.00" endPos="163.60" friendlyPos="true" lines="5"/>
    <busStop id="3046699413" name="de Monkland / de Melrose" lane="463864541#1_1" startPos="22.46" endPos="37.46" friendlyPos="true" lines="162-O"/>
    <busStop id="3046699414" name="de Monkland / Grand Boulevard" lane="463844971_1" startPos="57.53" endPos="72.53" friendlyPos="true" lines="162-O"/>
    <busStop id="3046699415" name="Fielding / Grand Boulevard" lane="1082402388_0" startPos="52.84" endPos="67.84" friendlyPos="true"/>
    <busStop id="3046699416" name="Fielding / Côte-Saint-Luc" lane="1082402412#1_0" startPos="0.00" endPos="7.70" friendlyPos="true"/>
    <busStop id="3046699418" name="Queen-Mary / Macdonald" lane="1079091072_0" startPos="10.52" endPos="25.52" friendlyPos="true"/>
    <busStop id="3046699419" name="Queen-Mary / Earnscliffe" lane="1079091064_0" startPos="2.21" endPos="17.21" friendlyPos="true"/>
    <busStop id="3046699420" name="Earnscliffe / Queen-Mary" lane="1079091063_0" startPos="78.72" endPos="93.72" friendlyPos="true"/>
    <busStop id="3046699422" name="Décarie / Queen-Mary" lane="933080025#1_0" startPos="0.00" endPos="7.70" friendlyPos="true"/>
    <busStop id="3152516340" name="Fielding / Walkley" lane="1082077050_0" startPos="40.68" endPos="55.68" friendlyPos="true"/>
    <busStop id="3152516341" name="Fielding / Walkley" lane="1082077068_0" startPos="54.44" endPos="68.49" friendlyPos="true"/>
    <busStop id="3152516342" name="Fielding / Cavendish" lane="1082077056_0" startPos="42.63" endPos="56.87" friendlyPos="true"/>
    <busStop id="3152516343" name="Fielding / Cavendish" lane="1082402364_0" startPos="46.53" endPos="59.64" friendlyPos="true"/>
    <busStop id="3152516344" name="Fielding / West Hill" lane="1082402384#1_0" startPos="1.94" endPos="16.94" friendlyPos="true"/>
    <busStop id="3152516345" name="Fielding / West Hill" lane="1082402356#1_0" startPos="5.07" endPos="20.07" friendlyPos="true"/>
    <busStop id="3152519189" name="Fielding / Grand Boulevard" lane="1082402352_0" startPos="59.68" endPos="72.55" friendlyPos="true"/>
    <busStop id="3152519190" name="Fielding / Côte-Saint-Luc" lane="1082402344_0" startPos="26.73" endPos="41.73" friendlyPos="true"/>
    <busStop id="3152550117" name="Somerled / Cavendish" lane="1082404464#7_1" startPos="0.00" endPos="9.48" friendlyPos="true" lines="102-O"/>
    <busStop id="3153668833" name="Fielding / Hingston" lane="1082402403_0" startPos="51.60" endPos="66.60" friendlyPos="true"/>
    <busStop id="3167888764" name="Queen-Mary / Lemieux" lane="933328172#1_0" startPos="0.00" endPos="12.73" friendlyPos="true"/>
    <busStop id="3167905179" name="Station Snowdon (Queen-Mary / de Westbury)" lane="933328165_0" startPos="36.23" endPos="51.23" friendlyPos="true"/>
    <busStop id="3171687453" name="Queen-Mary / Victoria" lane="463870725_1" startPos="58.33" endPos="73.33" friendlyPos="true" lines="51-O"/>
    <busStop id="3171689585" name="Queen-Mary / Ponsard" lane="933328168#2_0" startPos="0.00" endPos="7.70" friendlyPos="true"/>
    <busStop id="3324368267" name="de Monkland / Harvard" lane="463864590_1" startPos="54.75" endPos="69.75" friendlyPos="true" lines="162-O"/>
    <busStop id="3833334542" name="Vendôme" lane="1079753097_0" startPos="1520.66" endPos="1720.66" friendlyPos="true" lines="exo1 exo4">
        <access lane="-1082936909_0" pos="16.51" length="11.86" friendlyPos="1"/>
        <access lane="1082936909_0" pos="0.00" length="7.36" friendlyPos="1"/>
        <access lane="1082936910_0" pos="0.00" length="9.05" friendlyPos="1"/>
        <access lane="1082936911#10_0" pos="21.48" length="13.02" friendlyPos="1"/>
        <access lane="1082936911#11_0" pos="0.36" length="5.73" friendlyPos="1"/>
    </busStop>
    <busStop id="4051678439" name="de Monkland / Marcil" lane="463864756_1" startPos="58.52" endPos="73.52" friendlyPos="true" lines="162-O"/>
    <busStop id="4051678440" name="Station Villa-Maria" lane="933071120_0" startPos="3.73" endPos="18.73" friendlyPos="true"/>
    <busStop id="4367816207" name="Somerled / Grand Boulevard" lane="165214768#12_1" startPos="58.98" endPos="73.98" friendlyPos="true" lines="102-O"/>
    <busStop id="437811772" name="Côte-Sainte-Catherine" lane="1082752881_0" startPos="0.00" endPos="100.00" friendlyPos="true" lines="2">
        <access lane="-480342542_0" pos="8.92" length="17.16" friendlyPos="1"/>
        <access lane="479688352_0" pos="83.05" length="28.06" friendlyPos="1"/>
        <access lane="480342542_0" pos="82.68" length="3.06" friendlyPos="1"/>
        <access lane="997242869#0_0" pos="10.81" length="4.27" friendlyPos="1"/>
        <access lane="997242870_0" pos="8.05" length="21.01" friendlyPos="1"/>
    </busStop>
    <busStop id="437811806" name="Villa-Maria" lane="1082752884#1_0" startPos="516.20" endPos="616.20" friendlyPos="true" lines="2">
        <access lane="933071115#0_0" pos="0.00" length="25.15" friendlyPos="1"/>
        <access lane="933071117#2_0" pos="19.19" length="17.06" friendlyPos="1"/>
        <access lane="933071117#3_0" pos="0.00" length="17.98" friendlyPos="1"/>
        <access lane="933071121_0" pos="0.00" length="9.17" friendlyPos="1"/>
        <access lane="993362118_0" pos="4.21" length="18.07" friendlyPos="1"/>
    </busStop>
    <busStop id="437811839" name="Vendôme" lane="1082752884#1_0" startPos="496.58" endPos="696.58" friendlyPos="true" lines="2">
        <access lane="960611536_0" pos="4.90" length="5.95" friendlyPos="1"/>
        <access lane="960611537_0" pos="0.00" length="2.41" friendlyPos="1"/>
        <access lane="960611538_0" pos="0.00" length="6.32" friendlyPos="1"/>
        <access lane="960611544_0" pos="0.00" length="4.99" friendlyPos="1"/>
        <access lane="960611545_0" pos="0.00" length="2.79" friendlyPos="1"/>
    </busStop>
    <busStop id="437811884" name="Place Saint-Henri" lane="1082752884#1_0" startPos="496.58" endPos="696.58" friendlyPos="true" lines="2"/>
    <busStop id="4380897324" name="Côte-Saint-Luc / Randall" lane="1079052757#2_0" startPos="6.45" endPos="21.45" friendlyPos="true"/>
    <busStop id="4380897325" name="Côte-Saint-Luc / West Hill" lane="1079009424_0" startPos="0.68" endPos="11.95" friendlyPos="true"/>
    <busStop id="4380897351" name="Station Villa-Maria" lane="933071117#3_0" startPos="25.84" endPos="34.19" friendlyPos="true"/>
    <busStop id="4380897962" name="Côte-Saint-Luc / Randall" lane="1079009416_0" startPos="0.00" endPos="7.64" friendlyPos="true"/>
    <busStop id="4380897963" name="Côte-Saint-Luc / Kensington" lane="1079009428#1_0" startPos="11.71" endPos="26.71" friendlyPos="true"/>
    <busStop id="4380897964" name="Côte-Saint-Luc / Grand Boulevard" lane="1079002502_0" startPos="10.83" endPos="18.33" friendlyPos="true"/>
    <busStop id="4380897968" name="Queen-Mary / Trans Island" lane="933293644_0" startPos="0.00" endPos="13.64" friendlyPos="true"/>
    <busStop id="4380897969" name="Station Villa-Maria (Décarie / de Monkland)" lane="933071114#1_0" startPos="0.00" endPos="14.58" friendlyPos="true"/>
    <busStop id="4478289734" name="Institut de Gériatrie (Queen-Mary/Cedar Crescent)" lane="20188675#2_1" startPos="31.29" endPos="46.29" friendlyPos="true" lines="51-O"/>
    <busStop id="4705344019" name="Clanranald / Dupuis" lane="222780033#2_2" startPos="115.65" endPos="130.65" friendlyPos="true" lines="129-N 129-S"/>
    <busStop id="5106483231" name="Sherbrooke / Hingston" lane="1081022988_0" startPos="0.80" endPos="15.80" friendlyPos="true"/>
    <busStop id="5106483232" name="Sherbrooke / de Clifton" lane="1081022966#1_0" startPos="32.78" endPos="46.74" friendlyPos="true"/>
    <busStop id="5106483233" name="Sherbrooke / Wilson" lane="1081024190_0" startPos="0.62" endPos="15.62" friendlyPos="true"/>
    <busStop id="5106483234" name="Sherbrooke / Oxford" lane="1080986803_0" startPos="0.96" endPos="15.96" friendlyPos="true"/>
    <busStop id="5106483235" name="Sherbrooke / Girouard" lane="1080735808_0" startPos="0.00" endPos="13.58" friendlyPos="true"/>
    <busStop id="5106483236" name="Sherbrooke / Décarie" lane="1081624252_0" startPos="20.41" endPos="35.41" friendlyPos="true"/>
    <busStop id="5228487329" name="Jean-Talon" lane="1075356857_0" startPos="0.00" endPos="163.60" friendlyPos="true" lines="5"/>
    <busStop id="5376469322" name="Côte-Saint-Luc / Silverson" lane="1078912336_0" startPos="0.00" endPos="13.93" friendlyPos="true"/>
    <busStop id="5376502421" name="Côte-Saint-Luc / Rosedale" lane="1078995435_0" startPos="3.89" endPos="18.89" friendlyPos="true"/>
    <busStop id="5401070736" name="Côte-Saint-Luc / Walkley" lane="1079009398#1_0" startPos="0.00" endPos="14.04" friendlyPos="true"/>
    <busStop id="5527781387" name="Girouard / Notre-Dame-de-Grâce" lane="933008479#1_0" startPos="0.00" endPos="7.70" friendlyPos="true"/>
    <busStop id="5527781388" name="Girouard / Notre-Dame-de-Grâce" lane="933008455_0" startPos="9.07" endPos="24.07" friendlyPos="true"/>
    <busStop id="5527782680" name="Station Villa-Maria" lane="933071117#2_0" startPos="12.47" endPos="23.47" friendlyPos="true"/>
    <busStop id="5536207113" name="de Monkland / Hingston" lane="463864074#4_1" startPos="58.01" endPos="73.01" friendlyPos="true" lines="162-O"/>
    <busStop id="5764418467" name="Sherbrooke / Grand Boulevard" lane="1081022995_0" startPos="4.64" endPos="19.64" friendlyPos="true"/>
    <busStop id="5764418468" name="Sherbrooke / Hingston" lane="1081022982_0" startPos="62.24" endPos="74.00" friendlyPos="true"/>
    <busStop id="5764418469" name="Sherbrooke / Royal" lane="1081022964#0_0" startPos="0.00" endPos="12.87" friendlyPos="true"/>
    <busStop id="5764418470" name="Sherbrooke / Wilson" lane="1081022907_0" startPos="51.48" endPos="66.48" friendlyPos="true"/>
    <busStop id="5764418471" name="Sherbrooke / Oxford" lane="1080986796_0" startPos="0.00" endPos="14.01" friendlyPos="true"/>
    <busStop id="5764418472" name="Sherbrooke / Girouard" lane="932899016_0" startPos="48.98" endPos="63.98" friendlyPos="true"/>