<?xml version="1.0" encoding="UTF-8"?>

<!-- Generated with SUMO Activity-Based Mobility Generator [https://github.com/lcodeca/SUMOActivityGen] -->

<routes xmlns:xsi="http://www.w3.org/2001/XMLSchema-instance" xsi:noNamespaceSchemaLocation="http://sumo.dlr.de/xsd/routes_file.xsd"> 
    <vehicle id="on-demand.0" type="on-demand" depart="0.0">
        <route edges="4320471#2"/>
        <stop lane="4320471#2_1" startPos="1.0" endPos="-1.0" triggered="person"/>
    </vehicle>
    <vehicle id="on-demand.1" type="on-demand" depart="0.0">
        <route edges="37997317#2"/>
        <stop lane="37997317#2_1" startPos="1.0" endPos="-1.0" triggered="person"/>
    </vehicle>
    <vehicle id="on-demand.2" type="on-demand" depart="0.0">
        <route edges="25367003#1"/>
        <stop lane="25367003#1_1" startPos="1.0" endPos="-1.0" triggered="person"/>
    </vehicle>
    <vehicle id="on-demand.3" type="on-demand" depart="0.0">
        <route edges="224531882#0"/>
        <stop lane="224531882#0_1" startPos="1.0" endPos="-1.0" triggered="person"/>
    </vehicle>
    <vehicle id="on-demand.4" type="on-demand" depart="0.0">
        <route edges="41651789#1"/>
        <stop lane="41651789#1_1" startPos="1.0" endPos="-1.0" triggered="person"/>
    </vehicle>
    <vehicle id="on-demand.5" type="on-demand" depart="0.0">
        <route edges="118116148"/>
        <stop lane="118116148_0" startPos="1.0" endPos="-1.0" triggered="person"/>
    </vehicle>
    <vehicle id="on-demand.6" type="on-demand" depart="0.0">
        <route edges="-20170647#2"/>
        <stop lane="-20170647#2_1" startPos="1.0" endPos="-1.0" triggered="person"/>
    </vehicle>
    <vehicle id="on-demand.7" type="on-demand" depart="0.0">
        <route edges="133806981#4"/>
        <stop lane="133806981#4_1" startPos="1.0" endPos="-1.0" triggered="person"/>
    </vehicle>
    <vehicle id="on-demand.8" type="on-demand" depart="0.0">
        <route edges="-1051822950#1"/>
        <stop lane="-1051822950#1_1" startPos="1.0" endPos="-1.0" triggered="person"/>
    </vehicle>
    <vehicle id="on-demand.9" type="on-demand" depart="0.0">
        <route edges="331907686-AddedOnRampEdge"/>
        <stop lane="331907686-AddedOnRampEdge_0" startPos="1.0" endPos="-1.0" triggered="person"/>
    </vehicle>
    <person id="9948739_1634158_12" type="pedestrian" depart="16765.73">
        <walk edges="455712869#1" busStop="5754358294"/>
        <ride busStop="427618242" lines="74-N:0" intended="pt_bus_74-N:0.27" depart="16798.0"/>
        <walk edges="37722302#1 133806980#5 133806980#4 133806980#3 1080292017#1 1080292016#1 133806980#1 704194125#1 704194093#1 329988459#9 329988459#8 329988459#7 1093161751#1 1093161753#0 103974914#7 103974914#5 103974914#4 481494294#1 481494298#0 -673699710#4 975251637#0 975251637#1 975251637#2 463676555#1 463676555#2 463676555#3 463676555#4 463676555#5 -463676555#6 -463676555#7 1090296260#7 1090296260#6 1090296260#4 1090296260#3 -473733101#1 -473733101#2 -473733101#3 -473733101#4 -473733101#5 -975251638 463671313#3" busStop="913940068"/>
        <ride busStop="443938658" lines="108-E:0" intended="pt_bus_108-E:0.30" depart="18540.0"/>
        <walk edges="231387458#2 231387458#3 92352267#6 92352267#5 92352267#4 92352267#3 92352267#2 508160613#0 508160613#1 453753701 453753705#0 453753705#2 -92352265 990622077" arrivalPos="27.0614105829671"/>
        <stop lane="990622077_0" duration="12552.608609936497" actType="P-Morning"/>
        <walk edges="990622077 -92352265 -92352264 -92352263#0 92352263#1 92352263#2 165217839#0 165217839#2 394910074#0 1050419190#0 1050419190#1 1050419190#2 329694554#1" busStop="2519454983"/>
        <ride busStop="-6010965405" lines="57-E:0" intended="pt_bus_57-E:0.53" depart="32220.0"/>
        <walk edges="-465656094#1 975251637#2 975251637#1 975251637#0 -673699710#4 481494298#0 481494294#1 -673699710#2 -673699710#1 -39442470#0 113861079#0 -113861078#0 -113861078#1 -41651755#1 -354710422#0 37722302#1" arrivalPos="59.85341277797948"/>
        <stop lane="37722302#1_0" duration="10538.54749623624" actType="S-Long"/>
        <walk edges="37722302#1 -37722302#1" busStop="-427618245"/>
        <ride busStop="-5754358296" lines="107-S:0" intended="pt_bus_107-S:0.73" depart="43961.0"/>
        <walk edges="-455712867#1 1083606378#1 806947051#1 455712869#1" arrivalPos="67.93336759517081"/>
        <stop lane="455712869#1_0" duration="1.0" actType="Home"/>
    </person>
    <vehicle id="9937184_197561_2_tr" type="commercial" depart="triggered">
        <route edges="26026751#2 26026751#3 26026751#4 561738769 508160613#1 453753701 -506062129#6 -506062129#4 -506062129#3 -506062129#2 -506062129#1 -506062129#0 20170686#0 20170686#1 -20170392#4 -20170392#3 -20170392#2 -20170392#1 92352267#2 92352267#3 92352267#4 92352267#5 92352267#6 231387460#0 26026751#0 26026751#2 26026751#3 26026751#4 561738769 508160613#1 453753701 -506062129#6 -506062129#4 -506062129#3 -506062129#2 -506062129#1 -506062129#0 20170686#0 20170686#1 -20170392#4 -20170392#3 -20170392#2 -20170392#1 92352267#2 92352267#3 92352267#4 92352267#5 92352267#6 231387460#0 26026751#0 26026751#2"/>
        <stop lane="-20170392#4_1" parking="true" startPos="14.153374961678288" endPos="34.15337496167829" triggered="true" expected="9937184_197561_2"/>
        <stop lane="26026751#2_1" parking="true" startPos="6.74218327903904" endPos="26.74218327903904" triggered="true" expected="9937184_197561_2"/>
        <stop lane="-20170392#4_1" parking="true" startPos="14.153374961678288" endPos="34.15337496167829" triggered="true" expected="9937184_197561_2"/>
        <stop lane="26026751#2_1" duration="1.0"/>
    </vehicle>
    <person id="9937184_197561_2" type="pedestrian" depart="17186.96">
        <ride from="26026751#2" to="-20170392#4" arrivalPos="24.15337496167829" lines="9937184_197561_2_tr"/>
        <stop lane="-20170392#4_0" duration="18873.62776968101" actType="P-Morning"/>
        <ride from="-20170392#4" to="26026751#2" arrivalPos="16.74218327903904" lines="9937184_197561_2_tr"/>
        <stop lane="26026751#2_0" duration="2628.1938646718636" actType="Home"/>
        <ride from="26026751#2" to="-20170392#4" arrivalPos="24.15337496167829" lines="9937184_197561_2_tr"/>
        <stop lane="-20170392#4_0" duration="17745.41958378211" actType="P-Afternoon"/>
        <ride from="-20170392#4" to="26026751#2" arrivalPos="16.74218327903904" lines="9937184_197561_2_tr"/>
        <stop lane="26026751#2_0" duration="1.0" actType="Home"/>
    </person>
    <person id="1634158_9937244_6" type="pedestrian" depart="17315.02">
        <walk edges="92352265 92352264 92352263#0 92352263#1 92352263#2 165217839#0 165217839#2 394910074#0" busStop="6010973662@8873279"/>
        <ride busStop="6010975333" lines="150-E:0" intended="pt_bus_150-E:0.30" depart="18173.0"/>
        <walk edges="455083970#1 476967461#2 400303149 477904916 479285592#0 479285594#1 477911580#2 477911580#3 477911581 481494291#0 481494291#1 481494962#0 1073106709 1090296251#0 1090296251#1 1073101739#1 1073101739#0 1093161751#2 1093161751#1 1093161754#1 1093161752 1051147172#15 1051147172#14 1051147172#13 1051147172#12 1051147172#11 1051147172#10 1051147172#9 1051147172#8 1051147172#7 1051147172#6 1051147172#5 -263157468#1 806940760#0 806940758#0 806940758#1 573448691#0 704194121#1 704194101#0 165264485#1" arrivalPos="54.8320686149111"/>
        <stop lane="165264485#1_0" duration="26413.35728109897" actType="P-Day"/>
        <walk edges="165264485#1 165264485#2 165265055#0 165265055#1 165265055#2 165265055#3 165265055#4 1090296244#0 806940759#0 165264484#1 -1041940066#3 -1041940066#4 -1041940066#5 1041940066#6 1041940066#7" busStop="6010964698"/>
        <ride busStop="2687914649" lines="35-O:0" intended="pt_bus_35-O:0.75" depart="46119.0"/>
        <walk edges="545490137#1 545490137#2 463671427 463671599 154330947#3 154330947#2 154330947#0 463673045 -200638843#2 -200638843#1 767307737#2 792160912#1 10509461#1 10509461#2 10509461#3 10509461#4 10509461#5 678887672#2 678887672#3 678887672#5 570334096#1 506062129#0 506062129#1 506062129#2 506062129#3 506062129#4 506062129#5 453753705#0 453753705#2 92352265" arrivalPos="31.371878779830567"/>
        <stop lane="92352265_0" duration="1.0" actType="Home"/>
    </person>
    <person id="1634158_9948740_2" type="pedestrian" depart="17567.77">
        <walk edges="92352263#1 92352263#0 561738770 20170391 -561738769 508160613#0 4320470 463679894#0 575547253#0" busStop="6010981721"/>
        <ride busStop="6010970078" lines="108-O:0" intended="pt_bus_108-O:0.29" depart="17903.0"/>
        <walk edges="463671314#1 -200638843#1 -200638843#2 -463673045 -1051822950#0 -1051822950#1 -1051822950#2 1084240073#0 1084240071#1 1084240071#0 1084240096 1084240079#0 1084240079#1 -1051822950#6 1051822950#7 -20112445#4 20112445#1 20112445#0 1074271759#1 1074271758#3 1074271758#0 20112455#0 -20112623#21 806940725 1074271755#0 1042467342#4 816197807 -52135931#2" arrivalPos="53.13684976050169"/>
        <stop lane="-52135931#2_0" duration="15797.573969727862" actType="P-Morning"/>
        <walk edges="-52135931#2 -52135931#0 -1042467342#4 806940723#0 806940722#1 806940722#0 806940715 -20112443#8 -20112443#7 165217829#6 165217829#5 165217829#4 1090298424#1 1061398534#2 1090298425#2 725230629#1 -20112452#1 -1051822951#12 111771067#5 111771067#4 111771067#3 111771067#2 111771067#1 -465656094#1 -465656094#0 -111771070 -41258976#4 -41258976#3 -41258976#2 -455083994#2" busStop="-6010965967"/>
        <ride busStop="-4034535844" lines="66-N:0" intended="pt_bus_66-N:0.60" depart="36335.0"/>
        <walk edges="-455083993#2 398555298#1 400874849#0 400874849#1 399306775#1 -329384217#3 4687641#11" arrivalPos="19.643588608576103"/>
        <stop lane="4687641#11_0" duration="10085.55681764147" actType="S-Long"/>
        <walk edges="4687641#11 329384217#2 399306578#2 400881299#0 401049135#2 403955590#1 329384217#8" busStop="6010973621"/>
        <ride busStop="6010965893" lines="15-O:0" intended="pt_bus_15-O:0.78" depart="47003.0"/>
        <walk edges="1042466503#1 1042466503#2 394910074#0 165217839#2 165217839#0 92352263#2 92352263#1" arrivalPos="35.52585975022431"/>
        <stop lane="92352263#1_0" duration="1.0" actType="Home"/>
    </person>
    <vehicle id="8805747_9937184_5_tr" type="bicycle" depart="triggered">
        <route edges="466666376#1 -20178489#3 -20178489#0 -463677229#1 -463677228#1 -463677230#3 -463677230#2 -463677230#0 454188456 454188458#0 20178595#1 20178495#1 20178495#2 686625290#0 686625290#4 686625290#6 686625290#7 330150435#4 330150435#5 330150435#6 330150435#7 19683769#3 19683769#4 -465408864#4 -465408864#3 37954103#1 37954103#2 1042466503#0 1042466503#1 1042466503#2 329694553#1 329694553#2 936656919 329694555#0 329694555#1 329694555#2 329694555#3 329694555#4 329694555#5 329694555#6 329694555#7 4320473#10 41691765#0 41691765#1 41691766#1 454188457#0 104456616#1 104456616#3 -454188456 463677230#0 463677230#2 463677230#3 463677228#1 463677229#1 20178489#0 20178489#3 -20112434#1 -20112434#0 -154330947#0 -463673045 -463673046 -20112429#3 -20112429#2 -20112429#1 -20112429#0 -463676944 975251638 231387458#0 231387458#1 231387458#2 231387458#3 231387460#0 329694558 329694559#0 329694559#1 329694559#2 329694559#3 231387459 453949528 474841418#0 474841418#1 165217771#2 561490748#0 561490748#1 465408864#0 37954103#1 37954103#2 1042466503#0 1042466503#1 1042466503#2 329694553#1 329694553#2 936656919 329694555#0 329694555#1 329694555#2 329694555#3 329694555#4 329694555#5 329694555#6 329694555#7 4320473#10 41691765#0 41691765#1 41691766#1 454188457#0 104456616#1 104456616#3 -454188456 463677230#0 463677230#2 463677230#3 463677228#1 463677229#1 20178489#0 20178489#3"/>
        <stop lane="-465408864#3_1" parking="true" startPos="85.38" endPos="-1.0" triggered="true" expected="8805747_9937184_5"/>
        <stop lane="20178489#3_1" parking="true" startPos="41.4" endPos="-1.0" triggered="true" expected="8805747_9937184_5"/>
        <stop lane="37954103#1_1" parking="true" startPos="0.5914753140591138" endPos="20.591475314059114" triggered="true" expected="8805747_9937184_5"/>
        <stop lane="20178489#3_1" duration="1.0"/>
    </vehicle>
    <person id="8805747_9937184_5" type="pedestrian" depart="18285.07">
        <ride from="466666376#1" to="-465408864#3" arrivalPos="95.38" lines="8805747_9937184_5_tr"/>
        <walk edges="37954103#1" arrivalPos="10.591475314059114"/>
        <stop lane="37954103#1_0" duration="18355.98394077227" actType="P-Morning"/>
        <walk edges="37954103#1 859387907#1 859387903#2 465408864#3 465408864#4 -465408864#4 -465408864#3" arrivalPos="94.38"/>
        <ride from="-465408864#3" to="20178489#3" arrivalPos="51.4" lines="8805747_9937184_5_tr"/>
        <walk edges="466666376#1" arrivalPos="88.30139620972648"/>
        <stop lane="466666376#1_0" duration="2483.2315588779966" actType="Home"/>
        <walk edges="466666376#1 20178489#3" arrivalPos="50.4"/>
        <ride from="20178489#3" to="37954103#1" arrivalPos="10.591475314059114" lines="8805747_9937184_5_tr"/>
        <stop lane="37954103#1_0" duration="14667.323107270775" actType="P-Afternoon"/>
        <ride from="37954103#1" to="20178489#3" arrivalPos="51.4" lines="8805747_9937184_5_tr"/>
        <walk edges="466666376#1" arrivalPos="88.30139620972648"/>
        <stop lane="466666376#1_0" duration="1.0" actType="Home"/>
    </person>
    <vehicle id="9937184_9937137_1_tr" type="passenger" depart="triggered">
        <route edges="330150736#0 330150736#1 330150434#0 330150434#1 330150434#2 329694554#10 329694554#11 455083994#1 330153472#1 330153472#2 465653665#1 4886314#1 4886314#2 4886314#3 686625290#0 686625290#4 329694554#7 329694554#10 22080579#0 22080579#1 22080579#2 330150736#0"/>
        <stop parkingArea="1192154284" triggered="true" expected="9937184_9937137_1"/>
        <stop lane="330150736#0_1" duration="1.0"/>
    </vehicle>
    <person id="9937184_9937137_1" type="pedestrian" depart="18681.8">
        <ride from="330150736#0" to="455083994#1" arrivalPos="28.191460793313258" lines="9937184_9937137_1_tr"/>
        <walk edges="455083994#1 401083643#1 398546114#1 398546114#0 398557959#0 455083993#3" arrivalPos="15.875"/>
        <stop lane="455083993#3_0" duration="20167.723545720895" actType="P-Day"/>
        <walk edges="455083993#3 398557959#0 398546114#0 398546114#1 401083643#1 455083994#1" arrivalPos="28.191460793313258"/>
        <ride from="455083994#1" to="330150736#0" arrivalPos="24.352999955334248" lines="9937184_9937137_1_tr"/>
        <stop lane="330150736#0_0" duration="1.0" actType="Home"/>
    </person>
    <person id="1572820_9937137_4" type="pedestrian" depart="18718.87">
        <ride from="-1092666574#1" to="-455083994#2" arrivalPos="110.46802365575185" lines="taxi"/>
        <stop lane="-455083994#2_0" duration="18674.7377460552" actType="P-Morning"/>
        <ride from="-455083994#2" to="329694554#3" arrivalPos="45.24323890374754" lines="taxi"/>
        <stop lane="329694554#3_0" duration="5476.427966320349" actType="S-Short"/>
        <ride from="329694554#3" to="329694554#11" arrivalPos="67.19999999999999" lines="taxi"/>
        <walk edges="-455083994#2" arrivalPos="110.46802365575185"/>
        <stop lane="-455083994#2_0" duration="13685.150927228542" actType="P-Afternoon"/>
        <ride from="-455083994#2" to="20112457#1" arrivalPos="67.8257913606922" lines="taxi"/>
        <stop lane="20112457#1_0" duration="5149.305509423393" actType="S-Short"/>
        <walk edges="20112457#1 806924909#0 1090296243#0 -1092666574#1" arrivalPos="163.56224413657762"/>
        <stop lane="-1092666574#1_0" duration="1.0" actType="Home"/>
    </person>
    <vehicle id="9948739_9948738_10_tr" type="bicycle" depart="triggered">
        <route edges="-20112623#12 -20112623#11 -20112623#10 738256092#1 -738256093 20112623#10 20112623#11 20112623#12 20112623#15 20112623#17 -1042467342#1 -20112443#8 -20112443#7 -20112443#4 -20112443#2 -463677563#1 -463677565#1 -463677565#0 -463677569#3 -463677569#2 -463677569#0 463676555#5 463676555#6 463676555#7 473733101#1 473733101#2 473733101#3 473733101#4 473733101#5 975251638 463671314#0 463671314#1 200638843#1 200638843#2 1051822951#0 1051822951#1 1051822951#4 1051822951#5 1051822951#6 1051822951#7 1051822951#8 1051822951#10 1051822951#11 1051822951#12 329988459#1 329988459#2 329988459#3 329988459#4 329988459#7 329988459#8 329988459#9 133806981#1 133806981#4 573448690#1 573448691#0 573448691#1 573448691#2 573448691#3 366840862#18 1092666574#1 -1042467341#7 396819314#1 1093571779#1 -1093571778#1 -1093571778#0 -1036605108 -121547736 121547736 1036605108 1093571778#0 1093571778#1 232924520#0 -20112623#12 -20112623#11 -20112623#10 -20112623#9 -20112623#8 -20112623#7 -20112623#4 -20112623#1 25367322 20112793#0 20112793#1 20112793#2 20112793#3 606863916#0 20112623#7 20112623#8 20112623#9 20112623#10 20112623#11"/>
        <stop lane="463671314#0_1" parking="true" startPos="14.30260915584578" endPos="34.30260915584578" triggered="true" expected="9948739_9948738_10"/>
        <stop lane="329988459#4_1" parking="true" startPos="27.259207569163692" endPos="47.25920756916369" triggered="true" expected="9948739_9948738_10"/>
        <stop lane="396819314#1_1" parking="true" startPos="74.99" endPos="-1.0" triggered="true" expected="9948739_9948738_10"/>
        <stop lane="20112793#1_1" parking="true" startPos="48.267701506307006" endPos="68.267701506307" triggered="true" expected="9948739_9948738_10"/>
        <stop lane="20112623#11_1" duration="1.0"/>
    </vehicle>
    <person id="9948739_9948738_10" type="pedestrian" depart="19173.97">
        <ride from="-20112623#12" to="463671314#0" arrivalPos="24.30260915584578" lines="9948739_9948738_10_tr"/>
        <stop lane="463671314#0_0" duration="8966.858259510316" actType="P-Morning"/>
        <ride from="463671314#0" to="329988459#4" arrivalPos="37.25920756916369" lines="9948739_9948738_10_tr"/>
        <stop lane="329988459#4_0" duration="4590.106246356322" actType="S-Long"/>
        <ride from="329988459#4" to="396819314#1" arrivalPos="84.99" lines="9948739_9948738_10_tr"/>
        <walk edges="-20112623#12" arrivalPos="72.9886858537314"/>
        <stop lane="-20112623#12_0" duration="2071.8980112614768" actType="Home"/>
        <walk edges="-20112623#12 704189137#1 704189137#2 704189137#3 704189137#4 396819314#1" arrivalPos="83.99"/>
        <ride from="396819314#1" to="20112793#1" arrivalPos="58.267701506307006" lines="9948739_9948738_10_tr"/>
        <stop lane="20112793#1_0" duration="7357.666279733364" actType="S-Short"/>
        <ride from="20112793#1" to="20112623#11" arrivalPos="43.29" lines="9948739_9948738_10_tr"/>
        <walk edges="-20112623#12" arrivalPos="72.9886858537314"/>
        <stop lane="-20112623#12_0" duration="1.0" actType="Home"/>
    </person>
    <person id="9937244_9937184_8" type="pedestrian" depart="19447.73">
        <walk edges="-20112623#1 -20112623#4 704189149#0 704189138#0 704189138#1 704189150#0 704189150#1 704189150#2 704189150#3 -20112623#8 -20112623#9 -20112623#10 -20112623#11 -20112623#12 704189137#1 704189137#2 -20112623#15 806940712#1 806940713 806940715 -20112443#8 -20112443#7 1061398999#0 1061398998 1061398997#0 1083355346#1 -20112443#2 -463677563#1 1080053560#0 1080053559#1 -463677565#1 -463677565#0 -463677569#3 -463677569#2 -463677569#0 -463676555#5 463676555#6 463676555#7 1090296260#8 1090296260#0 454188457#0 41691766#1 37852830 463825907#2 337432401#0 337432401#1 -37852832#4 329694556#2 329694556#1 329694556#0 337432398#1 337432398#0 244648182#1 244648182#0 244648187#0 244648187#1 165217839#2 165217839#0 165217770#0 453949527 107696154#0" arrivalPos="155.41204853765984"/>
        <stop lane="107696154#0_0" duration="7771.113653505443" actType="P-Morning"/>
        <walk edges="107696154#0 474841415#1 474841415#0 453745797#1 453745797#0 561490751#2 561490751#0 561490746#1 859521929#3 165264481#0 24237811 -24163564" arrivalPos="40.72208320890254"/>
        <stop lane="-24163564_0" duration="9164.562010969668" actType="S-Short"/>
        <walk edges="-24163564 24237811 165264481#0 165264481#2 561490746#0 561490746#1 561490751#0 859521930#3 453745797#1 474841415#0 474841415#1 107696154#0" arrivalPos="155.41204853765984"/>
        <stop lane="107696154#0_0" duration="19183.46465592312" actType="P-Afternoon"/>
        <walk edges="107696154#0 1042466505#1 330150435#9 330150435#8 330150435#7 330150435#6 330150435#5 330150435#4 477544166#0 477544163#1 477544163#0 477544159 399739961#0 399739961#1 399761122#0 330150736#0 398546120#0 398547483#0 398547483#1 398548183#1 455083993#3 401007230#1 478157841 478155028 479290589 477890300#1 8140256#1 19899276#0 479285592#1 479285594#0 103896396#5 103896396#6 477912389#0 477911581 481494040 481492405#0 39442470#0 450956616#1 354710422#1 354710422#0 1082150523#3 1082150047#2 1093361789 1093361792#0 1093361790 1083572691#0 1083572690#0 474555863#0 -474555867#2 960188218#1 43710576#0 806947074#4 806947074#5 806947075#1 806947072 806947071#1 944264312 664696776" arrivalPos="31.04224810985819"/>
        <stop lane="664696776_0" duration="4446.781736801837" actType="S-Short"/>
        <walk edges="664696776 664696778#0 664696778#1 352905251#1 806947102#2 806947086 806947092#3 806947092#2 806947045#2 806947053#0 1083602292#1 1083602292#0 1083602293#3 806947046#1 806947051#5 806947051#4 806947051#1 806947051#0 806924889#1 806924895#0 806924895#1 806924894 806924893#0 689804569#4 492899793#1 372545211#2 704194084#0 704194084#1 704194085#0 -20112623#1" arrivalPos="34.282044173917505"/>
        <stop lane="-20112623#1_0" duration="1.0" actType="Home"/>
    </person>
    <vehicle id="197561_9948740_4_tr" type="evehicle" depart="triggered">
        <route edges="678887672#0 678887672#1 678887672#2 10509460#1 10509460#2 10509460#3 792160913#1 200638843#1 200638843#2 1051822951#0 1051822951#1 1051822951#4 1051822951#5 1051822951#6 1051822951#7 1051822951#8 463677563#1 20112443#2 20112443#4 20112443#7 20112443#8 1042467342#1 1042467342#4 816197807 52135931#2 52135931#3 463595256 453299274#1 453299274#2 453299274#3 453299274#4 -20113823#0 20113823#0 -453299274#4 -453299274#3 -453299274#2 -453299274#1 -463595256 -52135931#3 -52135931#2 -52135931#0 -1042467342#4 -1042467342#1 -20112443#8 -20112443#7 -20112443#4 -20112443#2 -463677563#1 -463677565#1 -463677565#0 -463677569#3 -463677569#2 -463677569#0 463676555#5 463676555#6 463676555#7 473733101#1 473733101#2 473733101#3 473733101#4 473733101#5 975251638 678887672#0 678887672#1 678887672#2 10509460#1 10509460#2 10509460#3 792160913#1 200638843#1 200638843#2 1051822951#0 1051822951#1 1051822951#4 1051822951#5 1051822951#6 1051822951#7 1051822951#8 463677563#1 20112443#2 20112443#4 20112443#7 20112443#8 1042467342#1 1042467342#4 816197807 52135931#2 52135931#3 463595256 453299274#1 453299274#2 453299274#3 453299274#4 -20113823#0 20113823#0 -453299274#4 -453299274#3 -453299274#2 -453299274#1 -463595256 -52135931#3 -52135931#2 -52135931#0 -1042467342#4 -1042467342#1 -20112443#8 -20112443#7 -20112443#4 -20112443#2 -463677563#1 -463677565#1 -463677565#0 -463677569#3 -463677569#2 -463677569#0 463676555#5 463676555#6 463676555#7 473733101#1 473733101#2 473733101#3 473733101#4 473733101#5 975251638 678887672#0"/>
        <stop parkingArea="7490904347" triggered="true" expected="197561_9948740_4"/>
        <stop lane="678887672#0_1" parking="true" startPos="41.976407955873334" endPos="61.976407955873334" triggered="true" expected="197561_9948740_4"/>
        <stop parkingArea="7490904347" triggered="true" expected="197561_9948740_4"/>
        <stop lane="678887672#0_1" duration="1.0"/>
    </vehicle>
    <person id="197561_9948740_4" type="pedestrian" depart="19677.03">
        <ride from="678887672#0" to="453299274#3" arrivalPos="48.61" lines="197561_9948740_4_tr"/>
        <walk edges="453299274#3 453299274#2 453299274#1 463595256 463464198 -121847912" arrivalPos="25.675"/>
        <stop lane="-121847912_0" duration="11560.142700931316" actType="P-Morning"/>
        <walk edges="-121847912 121847912 -463464198 -463595256 -453299274#1 -453299274#2 453299274#3" arrivalPos="48.61"/>
        <ride from="453299274#3" to="678887672#0" arrivalPos="51.976407955873334" lines="197561_9948740_4_tr"/>
        <stop lane="678887672#0_0" duration="1564.8299004879946" actType="Home"/>
        <ride from="678887672#0" to="453299274#3" arrivalPos="48.61" lines="197561_9948740_4_tr"/>
        <walk edges="453299274#3 453299274#2 453299274#1 463595256 463464198 -121847912" arrivalPos="25.675"/>
        <stop lane="-121847912_0" duration="9869.706609966284" actType="P-Afternoon"/>
        <walk edges="-121847912 121847912 -463464198 -463595256 -453299274#1 -453299274#2 453299274#3" arrivalPos="48.61"/>
        <ride from="453299274#3" to="678887672#0" arrivalPos="51.976407955873334" lines="197561_9948740_4_tr"/>
        <stop lane="678887672#0_0" duration="1.0" actType="Home"/>
    </person>
    <person id="9937137_197561_7" type="pedestrian" depart="19739.39">
        <walk edges="134811810#6 481494966#1 481492220#2 481494040 477911578#1 481494298#1 477911578#0 673699710#4 -975251637#0 -975251637#1 -975251637#2 1084242811#1 1084242808#2 1084242808#1 1084242806#1 -463676555#2 -463676555#3 -463676555#4 -463676555#5 -463676555#6 -463676555#7 1090296260#7 1090296260#6 1090296260#4 1090296260#3 -473733101#1 -473733101#2 -473733101#3 -473733101#4 -473733101#5 -975251638 -678887672#0 -678887672#1 -678887672#2 -678887672#3 -678887672#5 678887672#7" arrivalPos="46.06524518571844"/>
        <stop lane="678887672#7_0" duration="32386.360881896173" actType="P-Day"/>
        <walk edges="678887672#7 993738803#0 993738801#1 678887672#5 678887672#3 678887672#2 678887672#1 678887672#0 975251638 473733101#5 473733101#4 473733101#3 473733101#2 473733101#1 1090296260#0 1090296260#8 463676555#7 463676555#6 -463676555#5 -463676555#4 -463676555#3 -463676555#2 -463676555#1 475354381#1 1084242811#1 -975251637#2 -975251637#1 -975251637#0 -673699710#4 481494298#0 481494294#1 -673699710#2 481494291#1 481494962#0 481494962#1 704194087#0 -456874546#1" arrivalPos="18.661195258106787"/>
        <stop lane="-456874546#1_0" duration="267.7731729788079" actType="S-Short"/>
        <walk edges="-456874546#1 -456874546#2 -456874546#3 481492222#0 481492220#2" busStop="-1281757755"/>
        <walk edges="103935601 134811810#6" arrivalPos="43.8165708164353"/>
        <stop lane="134811810#6_0" duration="1.0" actType="Home"/>
    </person>
    <vehicle id="1572820_9937184_7_tr" type="motorcycle" depart="triggered">
        <route edges="165265049#3 165265049#4 -134811810#3 546047309#1 546047309#2 455083984#1 455083984#2 455083979#1 455083981#1 330153472#1 330153472#2 465653665#1 463825906#1 463825907#1 463825907#2 337432401#0 337432401#1 337432401#3 20170647#1 20170647#2 20170649#1 -20170649#1 453954922 231387458#2 231387458#3 231387460#0 329694558 329694559#0 329694559#1 329694559#2 329694559#3 231387459 453949528 474841418#0 48678911#1 37954103#2 1042466503#0 1042466503#1 1042466503#2 329694553#1 329694553#2 936656919 37852832#0 37852832#1 37852832#2 37852832#3 337432401#3 20170647#1 20170647#2 20170649#1 -20170649#1 -20170647#2 -20170647#1 728796869#2 329989224#0 329989224#1 329989224#2 453964887#0 453964892#1 455083968#1 455083976#0 41258973#1 41258973#2 455083980#0 455083970#1 41258971#1 546047308#0 546047308#1 134811808#1 -465649967#3 165265049#3"/>
        <stop parkingArea="443883402" triggered="true" expected="1572820_9937184_7"/>
        <stop parkingArea="9460532246" triggered="true" expected="1572820_9937184_7"/>
        <stop parkingArea="443883402" triggered="true" expected="1572820_9937184_7"/>
        <stop lane="165265049#3_0" duration="1.0"/>
    </vehicle>
    <person id="1572820_9937184_7" type="pedestrian" depart="19808.44">
        <ride from="165265049#3" to="-20170649#1" arrivalPos="12.5" lines="1572820_9937184_7_tr"/>
        <walk edges="-20170649#1 -37849001 329989224#0 337432401#1 337432401#0 463825907#2" arrivalPos="29.115"/>
        <stop lane="463825907#2_0" duration="12754.750248532087" actType="P-Morning"/>
        <walk edges="463825907#2 337432401#0 337432401#1 329989224#0 -37849001 -20170649#1" arrivalPos="12.5"/>
        <ride from="-20170649#1" to="1042466503#1" arrivalPos="78.34955489408365" lines="1572820_9937184_7_tr"/>
        <walk edges="1042466503#1 1042466503#0 330150435#9 330150435#8 330150435#7 992801201#0 992801203 992797514 992788854 992788853 859382580#1 465408862#1 465408862#2 465408862#3" arrivalPos="26.85"/>
        <stop lane="465408862#3_0" duration="4411.476513467973" actType="S-Short"/>
        <walk edges="465408862#3 465408862#2 465408862#1 859382580#1 859382585#1 4320473#1 4320473#2 330150435#7 330150435#8 330150435#9 1042466503#0 1042466503#1" arrivalPos="78.34955489408365"/>
        <ride from="1042466503#1" to="-20170649#1" arrivalPos="12.5" lines="1572820_9937184_7_tr"/>
        <walk edges="-20170649#1 -37849001 329989224#0 337432401#1 337432401#0 463825907#2" arrivalPos="29.115"/>
        <stop lane="463825907#2_0" duration="10313.188718801608" actType="P-Afternoon"/>
        <walk edges="463825907#2 337432401#0 337432401#1 329989224#0 -37849001 -20170649#1" arrivalPos="12.5"/>
        <ride from="-20170649#1" to="165265049#3" arrivalPos="46.472109100483664" lines="1572820_9937184_7_tr"/>
        <stop lane="165265049#3_0" duration="1.0" actType="Home"/>
    </person>
    <person id="8805747_9937244_11" type="pedestrian" depart="19936.16">