<?xml version="1.0" encoding="UTF-8"?>

<!-- generated on 2022-11-18 19:20:01.526239 by dashboard.py v1_14_1+0000-f654d7b963e
<configuration>
    <min-capacity-visibility-true value="50"/>
    <max-distance-alternatives value="1000.0"/>
    <max-distance-visibility-true value="1000.0"/>
    <output value="osm_parking_rerouters.add.xml"/>
    <parking-areas value="osm_complete_parking_areas.add.xml"/>
    <sumo-net value="osm.net.xml"/>
    <tqdm value="True"/>
</configuration>
-->

<additional xmlns:xsi="http://www.w3.org/2001/XMLSchema-instance" xsi:noNamespaceSchemaLocation="http://sumo.dlr.de/xsd/additional_file.xsd">

    <rerouter id="128001567#1" edges="128001567#1">
        <interval begin="0.0" end="86400">
            <!-- in order of distance --> 
            <parkingAreaReroute id="128001567#1" visible="true"/> <!-- dist: 0.0 -->
            <parkingAreaReroute id="282423433#0" visible="true"/> <!-- dist: 27.9 -->
            <parkingAreaReroute id="9920047071" visible="true"/> <!-- dist: 655.3 -->
            <parkingAreaReroute id="9297813719" visible="true"/> <!-- dist: 674.1 -->
            <parkingAreaReroute id="8649247439" visible="true"/> <!-- dist: 689.8 -->
            <parkingAreaReroute id="9920047072" visible="true"/> <!-- dist: 774.2 -->
            <parkingAreaReroute id="9214817340" visible="true"/> <!-- dist: 806.1 -->
            <parkingAreaReroute id="9920047044" visible="true"/> <!-- dist: 814.2 -->
            <parkingAreaReroute id="9920047055" visible="true"/> <!-- dist: 843.5 -->
            <parkingAreaReroute id="9920035787" visible="true"/> <!-- dist: 863.6 -->
            <parkingAreaReroute id="9311546441" visible="true"/> <!-- dist: 870.7 -->
        </interval>
    </rerouter>

    <rerouter id="282423433#0" edges="282423433#0">
        <interval begin="0.0" end="86400">
            <!-- in order of distance --> 
            <parkingAreaReroute id="282423433#0" visible="true"/> <!-- dist: 0.0 -->
            <parkingAreaReroute id="128001567#1" visible="true"/> <!-- dist: 154.6 -->
            <parkingAreaReroute id="9920047071" visible="true"/> <!-- dist: 590.9 -->
            <parkingAreaReroute id="9297813719" visible="true"/> <!-- dist: 609.7 -->
            <parkingAreaReroute id="8649247439" visible="true"/> <!-- dist: 625.5 -->
            <parkingAreaReroute id="9920047072" visible="true"/> <!-- dist: 709.9 -->
            <parkingAreaReroute id="9214817340" visible="true"/> <!-- dist: 741.8 -->
            <parkingAreaReroute id="9920047044" visible="true"/> <!-- dist: 749.9 -->
            <parkingAreaReroute id="9920047055" visible="true"/> <!-- dist: 779.1 -->
            <parkingAreaReroute id="9920035787" visible="true"/> <!-- dist: 799.3 -->
            <parkingAreaReroute id="9311546441" visible="true"/> <!-- dist: 806.4 -->
        </interval>
    </rerouter>

    <rerouter id="3163969119" edges="1082402416#1">
        <interval begin="0.0" end="86400">
            <!-- in order of distance --> 
            <parkingAreaReroute id="3163969119" visible="true"/> <!-- dist: 0.0 -->
            <parkingAreaReroute id="9920047044" visible="true"/> <!-- dist: 686.9 -->
            <parkingAreaReroute id="9920047055" visible="true"/> <!-- dist: 736.1 -->
            <parkingAreaReroute id="9920047072" visible="true"/> <!-- dist: 815.7 -->
            <parkingAreaReroute id="9920047071" visible="true"/> <!-- dist: 861.5 -->
            <parkingAreaReroute id="128001567#1" visible="true"/> <!-- dist: 947.0 -->
            <parkingAreaReroute id="9920035787" visible="true"/> <!-- dist: 950.9 -->
        </interval>
    </rerouter>

    <rerouter id="3493397473" edges="316470331#5">
        <interval begin="0.0" end="86400">
            <!-- in order of distance --> 
            <parkingAreaReroute id="3493397473" visible="true"/> <!-- dist: 0.0 -->
            <parkingAreaReroute id="9912529054" visible="true"/> <!-- dist: 545.1 -->
            <parkingAreaReroute id="9908445011" visible="true"/> <!-- dist: 754.6 -->
            <parkingAreaReroute id="4321538866" visible="true"/> <!-- dist: 849.2 -->
            <parkingAreaReroute id="4908928929" visible="true"/> <!-- dist: 854.0 -->
            <parkingAreaReroute id="9923670292" visible="true"/> <!-- dist: 888.2 -->
            <parkingAreaReroute id="9923670293" visible="true"/> <!-- dist: 891.4 -->
        </interval>
    </rerouter>

    <rerouter id="4321538866" edges="439958483">
        <interval begin="0.0" end="86400">
            <!-- in order of distance --> 
            <parkingAreaReroute id="4321538866" visible="true"/> <!-- dist: 0.0 -->
            <parkingAreaReroute id="9923670292" visible="true"/> <!-- dist: 29.0 -->
            <parkingAreaReroute id="9923670293" visible="true"/> <!-- dist: 32.2 -->
            <parkingAreaReroute id="7431532519" visible="true"/> <!-- dist: 174.9 -->
            <parkingAreaReroute id="7431532517" visible="true"/> <!-- dist: 184.2 -->
            <parkingAreaReroute id="4321539316" visible="true"/> <!-- dist: 294.6 -->
            <parkingAreaReroute id="3493397473" visible="true"/> <!-- dist: 526.5 -->
        </interval>
    </rerouter>

    <rerouter id="4321539316" edges="1077987394#0">
        <interval begin="0.0" end="86400">
            <!-- in order of distance --> 
            <parkingAreaReroute id="4321539316" visible="true"/> <!-- dist: 0.0 -->
            <parkingAreaReroute id="3493397473" visible="true"/> <!-- dist: 221.9 -->
            <parkingAreaReroute id="4321538866" visible="true"/> <!-- dist: 600.3 -->
            <parkingAreaReroute id="4908928929" visible="true"/> <!-- dist: 605.1 -->
            <parkingAreaReroute id="9923670292" visible="true"/> <!-- dist: 639.3 -->
            <parkingAreaReroute id="9923670293" visible="true"/> <!-- dist: 642.5 -->
            <parkingAreaReroute id="9912529054" visible="true"/> <!-- dist: 771.3 -->
            <parkingAreaReroute id="7431532519" visible="true"/> <!-- dist: 785.2 -->
            <parkingAreaReroute id="7431532517" visible="true"/> <!-- dist: 794.5 -->
            <parkingAreaReroute id="9908445011" visible="true"/> <!-- dist: 986.5 -->
        </interval>
    </rerouter>

    <rerouter id="4908928929" edges="439958483">
        <interval begin="0.0" end="86400">
            <!-- in order of distance --> 
            <parkingAreaReroute id="4908928929" visible="true"/> <!-- dist: 0.0 -->
            <parkingAreaReroute id="9923670292" visible="true"/> <!-- dist: 24.2 -->
            <parkingAreaReroute id="9923670293" visible="true"/> <!-- dist: 27.4 -->
            <parkingAreaReroute id="7431532519" visible="true"/> <!-- dist: 170.1 -->
            <parkingAreaReroute id="7431532517" visible="true"/> <!-- dist: 179.5 -->
            <parkingAreaReroute id="4321539316" visible="true"/> <!-- dist: 289.8 -->
            <parkingAreaReroute id="3493397473" visible="true"/> <!-- dist: 521.7 -->
        </interval>
    </rerouter>

    <rerouter id="7431532517" edges="503887768">
        <interval begin="0.0" end="86400">
            <!-- in order of distance --> 
            <parkingAreaReroute id="7431532517" visible="true"/> <!-- dist: 0.0 -->
            <parkingAreaReroute id="4321539316" visible="true"/> <!-- dist: 100.3 -->
            <parkingAreaReroute id="3493397473" visible="true"/> <!-- dist: 332.2 -->
            <parkingAreaReroute id="4321538866" visible="true"/> <!-- dist: 710.6 -->
            <parkingAreaReroute id="4908928929" visible="true"/> <!-- dist: 715.4 -->
            <parkingAreaReroute id="9923670292" visible="true"/> <!-- dist: 749.6 -->
            <parkingAreaReroute id="9923670293" visible="true"/> <!-- dist: 752.8 -->
            <parkingAreaReroute id="9912529054" visible="true"/> <!-- dist: 881.7 -->
        </interval>
    </rerouter>

    <rerouter id="7431532519" edges="503887768">
        <interval begin="0.0" end="86400">
            <!-- in order of distance --> 
            <parkingAreaReroute id="7431532519" visible="true"/> <!-- dist: 0.0 -->
            <parkingAreaReroute id="4321539316" visible="true"/> <!-- dist: 109.7 -->
            <parkingAreaReroute id="3493397473" visible="true"/> <!-- dist: 341.6 -->
            <parkingAreaReroute id="4321538866" visible="true"/> <!-- dist: 720.0 -->
            <parkingAreaReroute id="4908928929" visible="true"/> <!-- dist: 724.8 -->
            <parkingAreaReroute id="9923670292" visible="true"/> <!-- dist: 759.0 -->
            <parkingAreaReroute id="9923670293" visible="true"/> <!-- dist: 762.2 -->
            <parkingAreaReroute id="9912529054" visible="true"/> <!-- dist: 891.0 -->
        </interval>
    </rerouter>

    <rerouter id="8649142168" edges="20415457#2">
        <interval begin="0.0" end="86400">
            <!-- in order of distance --> 
            <parkingAreaReroute id="8649142168" visible="true"/> <!-- dist: 0.0 -->
            <parkingAreaReroute id="8649247439" visible="true"/> <!-- dist: 385.2 -->
            <parkingAreaReroute id="9297813719" visible="true"/> <!-- dist: 449.8 -->
            <parkingAreaReroute id="128001567#1" visible="true"/> <!-- dist: 657.5 -->
            <parkingAreaReroute id="282423433#0" visible="true"/> <!-- dist: 722.3 -->
            <parkingAreaReroute id="8649142229" visible="true"/> <!-- dist: 772.6 -->
            <parkingAreaReroute id="9214817340" visible="true"/> <!-- dist: 795.7 -->
        </interval>
    </rerouter>

    <rerouter id="8649142226" edges="20415457#2">
        <interval begin="0.0" end="86400">
            <!-- in order of distance --> 
            <parkingAreaReroute id="8649142226" visible="true"/> <!-- dist: 0.0 -->
            <parkingAreaReroute id="8649247439" visible="true"/> <!-- dist: 385.2 -->
            <parkingAreaReroute id="9297813719" visible="true"/> <!-- dist: 449.8 -->
            <parkingAreaReroute id="128001567#1" visible="true"/> <!-- dist: 657.5 -->
            <parkingAreaReroute id="282423433#0" visible="true"/> <!-- dist: 722.3 -->
            <parkingAreaReroute id="8649142229" visible="true"/> <!-- dist: 772.6 -->
            <parkingAreaReroute id="9214817340" visible="true"/> <!-- dist: 795.7 -->
        </interval>
    </rerouter>

    <rerouter id="8649142229" edges="344887671#1">
        <interval begin="0.0" end="86400">
            <!-- in order of distance --> 
            <parkingAreaReroute id="8649142229" visible="true"/> <!-- dist: 0.0 -->
            <parkingAreaReroute id="8649142232" visible="true"/> <!-- dist: 259.3 -->
            <parkingAreaReroute id="8649142233" visible="true"/> <!-- dist: 259.3 -->
            <parkingAreaReroute id="8649142168" visible="true"/> <!-- dist: 270.3 -->
            <parkingAreaReroute id="8649142226" visible="true"/> <!-- dist: 270.3 -->
            <parkingAreaReroute id="8649247439" visible="true"/> <!-- dist: 665.5 -->
            <parkingAreaReroute id="9297813719" visible="true"/> <!-- dist: 730.1 -->
            <parkingAreaReroute id="128001567#1" visible="true"/> <!-- dist: 937.9 -->
        </interval>
    </rerouter>

    <rerouter id="8649142232" edges="20415457#2">
        <interval begin="0.0" end="86400">
            <!-- in order of distance --> 
            <parkingAreaReroute id="8649142232" visible="true"/> <!-- dist: 0.0 -->
            <parkingAreaReroute id="8649142168" visible="true"/> <!-- dist: 1.0 -->
            <parkingAreaReroute id="8649142226" visible="true"/> <!-- dist: 1.0 -->
            <parkingAreaReroute id="8649247439" visible="true"/> <!-- dist: 396.2 -->
            <parkingAreaReroute id="9297813719" visible="true"/> <!-- dist: 460.8 -->
            <parkingAreaReroute id="128001567#1" visible="true"/> <!-- dist: 668.5 -->
            <parkingAreaReroute id="282423433#0" visible="true"/> <!-- dist: 733.3 -->
            <parkingAreaReroute id="8649142229" visible="true"/> <!-- dist: 783.6 -->
            <parkingAreaReroute id="9214817340" visible="true"/> <!-- dist: 806.7 -->
        </interval>
    </rerouter>

    <rerouter id="8649142233" edges="20415457#2">
        <interval begin="0.0" end="86400">
            <!-- in order of distance --> 
            <parkingAreaReroute id="8649142233" visible="true"/> <!-- dist: 0.0 -->
            <parkingAreaReroute id="8649142168" visible="true"/> <!-- dist: 1.0 -->
            <parkingAreaReroute id="8649142226" visible="true"/> <!-- dist: 1.0 -->
            <parkingAreaReroute id="8649247439" visible="true"/> <!-- dist: 396.2 -->
            <parkingAreaReroute id="9297813719" visible="true"/> <!-- dist: 460.8 -->
            <parkingAreaReroute id="128001567#1" visible="true"/> <!-- dist: 668.5 -->
            <parkingAreaReroute id="282423433#0" visible="true"/> <!-- dist: 733.3 -->
            <parkingAreaReroute id="8649142229" visible="true"/> <!-- dist: 783.6 -->
            <parkingAreaReroute id="9214817340" visible="true"/> <!-- dist: 806.7 -->
        </interval>
    </rerouter>

    <rerouter id="8649247439" edges="48114760#1">
        <interval begin="0.0" end="86400">
            <!-- in order of distance --> 
            <parkingAreaReroute id="8649247439" visible="true"/> <!-- dist: 0.0 -->
            <parkingAreaReroute id="9297813719" visible="true"/> <!-- dist: 358.7 -->
            <parkingAreaReroute id="8649142232" visible="true"/> <!-- dist: 561.1 -->
            <parkingAreaReroute id="8649142233" visible="true"/> <!-- dist: 561.1 -->
            <parkingAreaReroute id="128001567#1" visible="true"/> <!-- dist: 566.4 -->
            <parkingAreaReroute id="8649142168" visible="true"/> <!-- dist: 572.1 -->
            <parkingAreaReroute id="8649142226" visible="true"/> <!-- dist: 572.1 -->
            <parkingAreaReroute id="8649142229" visible="true"/> <!-- dist: 629.5 -->
            <parkingAreaReroute id="282423433#0" visible="true"/> <!-- dist: 631.2 -->
            <parkingAreaReroute id="9214817340" visible="true"/> <!-- dist: 746.7 -->
        </interval>
    </rerouter>

    <rerouter id="9214817340" edges="389096588#1">
        <interval begin="0.0" end="86400">
            <!-- in order of distance --> 
            <parkingAreaReroute id="9214817340" visible="true"/> <!-- dist: 0.0 -->
            <parkingAreaReroute id="9920035787" visible="true"/> <!-- dist: 514.5 -->
            <parkingAreaReroute id="9311546441" visible="true"/> <!-- dist: 539.7 -->
            <parkingAreaReroute id="9920047044" visible="true"/> <!-- dist: 811.9 -->
            <parkingAreaReroute id="9920047055" visible="true"/> <!-- dist: 861.1 -->
            <parkingAreaReroute id="9920047072" visible="true"/> <!-- dist: 940.6 -->
            <parkingAreaReroute id="9920047071" visible="true"/> <!-- dist: 949.2 -->
        </interval>
    </rerouter>

    <rerouter id="9255003466" edges="20904783#3">
        <interval begin="0.0" end="86400">
            <!-- in order of distance --> 
            <parkingAreaReroute id="9255003466" visible="true"/> <!-- dist: 0.0 -->
            <parkingAreaReroute id="9920035787" visible="true"/> <!-- dist: 934.5 -->
            <parkingAreaReroute id="9311546441" visible="true"/> <!-- dist: 995.7 -->
        </interval>
    </rerouter>

    <rerouter id="9297813719" edges="463878820#2">
        <interval begin="0.0" end="86400">
            <!-- in order of distance --> 
            <parkingAreaReroute id="9297813719" visible="true"/> <!-- dist: 0.0 -->
            <parkingAreaReroute id="128001567#1" visible="true"/> <!-- dist: 197.7 -->
            <parkingAreaReroute id="282423433#0" visible="true"/> <!-- dist: 262.5 -->
            <parkingAreaReroute id="8649247439" visible="true"/> <!-- dist: 292.3 -->
            <parkingAreaReroute id="9920047071" visible="true"/> <!-- dist: 711.5 -->
            <parkingAreaReroute id="8649142232" visible="true"/> <!-- dist: 813.7 -->
            <parkingAreaReroute id="8649142233" visible="true"/> <!-- dist: 813.7 -->
            <parkingAreaReroute id="8649142168" visible="true"/> <!-- dist: 824.7 -->
            <parkingAreaReroute id="8649142226" visible="true"/> <!-- dist: 824.7 -->
            <parkingAreaReroute id="9920047072" visible="true"/> <!-- dist: 830.5 -->
            <parkingAreaReroute id="8649142229" visible="true"/> <!-- dist: 882.1 -->
        </interval>
    </rerouter>

    <rerouter id="9311546441" edges="933080054#4">
        <interval begin="0.0" end="86400">
            <!-- in order of distance --> 
            <parkingAreaReroute id="9311546441" visible="true"/> <!-- dist: 0.0 -->
            <parkingAreaReroute id="9214817340" visible="true"/> <!-- dist: 229.3 -->
            <parkingAreaReroute id="9920035787" visible="true"/> <!-- dist: 369.3 -->
            <parkingAreaReroute id="9920047071" visible="true"/> <!-- dist: 671.1 -->
            <parkingAreaReroute id="9920047044" visible="true"/> <!-- dist: 732.1 -->
            <parkingAreaReroute id="9920047055" visible="true"/> <!-- dist: 781.3 -->
            <parkingAreaReroute id="9920047072" visible="true"/> <!-- dist: 790.0 -->
            <parkingAreaReroute id="9297813719" visible="true"/> <!-- dist: 842.8 -->
            <parkingAreaReroute id="8649247439" visible="true"/> <!-- dist: 849.3 -->
            <parkingAreaReroute id="128001567#1" visible="true"/> <!-- dist: 914.1 -->
            <parkingAreaReroute id="282423433#0" visible="true"/> <!-- dist: 978.9 -->
        </interval>
    </rerouter>

    <rerouter id="9895053284" edges="37709559#0">
        <interval begin="0.0" end="86400">
            <!-- in order of distance --> 
            <parkingAreaReroute id="9895053284" visible="true"/> <!-- dist: 0.0 -->
            <parkingAreaReroute id="9895053315" visible="true"/> <!-- dist: 39.7 -->
            <parkingAreaReroute id="9895053313" visible="true"/> <!-- dist: 208.4 -->
        </interval>
    </rerouter>

    <rerouter id="9895053315" edges="37709559#1">
        <interval begin="0.0" end="86400">
            <!-- in order of distance --> 
            <parkingAreaReroute id="9895053315" visible="true"/> <!-- dist: 0.0 -->
            <parkingAreaReroute id="9895053313" visible="true"/> <!-- dist: 158.7 -->
        </interval>
    </rerouter>

    <rerouter id="9908445011" edges="1081026833#1">
        <interval begin="0.0" end="86400">
            <!-- in order of distance --> 
            <parkingAreaReroute id="9908445011" visible="true"/> <!-- dist: 0.0 -->
            <parkingAreaReroute id="9911380356" visible="true"/> <!-- dist: 651.2 -->
            <parkingAreaReroute id="3493397473" visible="true"/> <!-- dist: 953.5 -->
        </interval>
    </rerouter>

    <rerouter id="9911380356" edges="1080986807#2">
        <interval begin="0.0" end="86400">
            <!-- in order of distance --> 
            <parkingAreaReroute id="9911380356" visible="true"/> <!-- dist: 0.0 -->
            <parkingAreaReroute id="9908445011" visible="true"/> <!-- dist: 58.1 -->
            <parkingAreaReroute id="3493397473" visible="true"/> <!-- dist: 856.0 -->
            <parkingAreaReroute id="9912529054" visible="true"/> <!-- dist: 982.4 -->
        </interval>
    </rerouter>

    <rerouter id="9912529054" edges="-463848445#4">
        <interval begin="0.0" end="86400">
            <!-- in order of distance --> 
            <parkingAreaReroute id="9912529054" visible="true"/> <!-- dist: 0.0 -->
            <parkingAreaReroute id="3493397473" visible="true"/> <!-- dist: 748.0 -->
        </interval>
    </rerouter>

    <rerouter id="9920035787" edges="453957882#1">
        <interval begin="0.0" end="86400">
            <!-- in order of distance --> 
            <parkingAreaReroute id="9920035787" visible="true"/> <!-- dist: 0.0 -->
            <parkingAreaReroute id="9311546441" visible="true"/> <!-- dist: 254.0 -->
            <parkingAreaReroute id="9920047044" visible="true"/> <!-- dist: 442.6 -->
            <parkingAreaReroute id="9920047055" visible="true"/> <!-- dist: 491.8 -->
            <parkingAreaReroute id="9214817340" visible="true"/> <!-- dist: 493.3 -->
            <parkingAreaReroute id="9920047072" visible="true"/> <!-- dist: 571.4 -->
            <parkingAreaReroute id="9920047071" visible="true"/> <!-- dist: 617.2 -->
            <parkingAreaReroute id="9255003466" visible="true"/> <!-- dist: 826.3 -->
        </interval>
    </rerouter>

    <rerouter id="9920047044" edges="464047500#3">
        <interval begin="0.0" end="86400">
            <!-- in order of distance --> 
            <parkingAreaReroute id="9920047044" visible="true"/> <!-- dist: 0.0 -->
            <parkingAreaReroute id="9920047055" visible="true"/> <!-- dist: 39.2 -->
            <parkingAreaReroute id="9920047072" visible="true"/> <!-- dist: 118.8 -->
            <parkingAreaReroute id="9920047071" visible="true"/> <!-- dist: 164.6 -->
            <parkingAreaReroute id="9920035787" visible="true"/> <!-- dist: 436.5 -->
            <parkingAreaReroute id="128001567#1" visible="true"/> <!-- dist: 646.2 -->
            <parkingAreaReroute id="9311546441" visible="true"/> <!-- dist: 700.5 -->
            <parkingAreaReroute id="282423433#0" visible="true"/> <!-- dist: 711.0 -->
            <parkingAreaReroute id="9214817340" visible="true"/> <!-- dist: 754.1 -->
            <parkingAreaReroute id="3163969119" visible="true"/> <!-- dist: 862.6 -->
            <parkingAreaReroute id="9297813719" visible="true"/> <!-- dist: 982.9 -->
        </interval>
    </rerouter>

    <rerouter id="9920047055" edges="464047500#4">
        <interval begin="0.0" end="86400">
            <!-- in order of distance --> 
            <parkingAreaReroute id="9920047055" visible="true"/> <!-- dist: 0.0 -->
            <parkingAreaReroute id="9920047072" visible="true"/> <!-- dist: 69.6 -->
            <parkingAreaReroute id="9920047044" visible="true"/> <!-- dist: 112.8 -->
            <parkingAreaReroute id="9920047071" visible="true"/> <!-- dist: 115.4 -->
            <parkingAreaReroute id="9920035787" visible="true"/> <!-- dist: 477.2 -->
            <parkingAreaReroute id="128001567#1" visible="true"/> <!-- dist: 597.0 -->
            <parkingAreaReroute id="282423433#0" visible="true"/> <!-- dist: 661.7 -->
            <parkingAreaReroute id="9214817340" visible="true"/> <!-- dist: 704.9 -->
            <parkingAreaReroute id="9311546441" visible="true"/> <!-- dist: 741.2 -->
            <parkingAreaReroute id="3163969119" visible="true"/> <!-- dist: 868.9 -->
            <parkingAreaReroute id="9297813719" visible="true"/> <!-- dist: 933.7 -->
        </interval>
    </rerouter>

    <rerouter id="9920047071" edges="464047500#10">
        <interval begin="0.0" end="86400">
            <!-- in order of distance --> 
            <parkingAreaReroute id="9920047071" visible="true"/> <!-- dist: 0.0 -->
            <parkingAreaReroute id="9920047072" visible="true"/> <!-- dist: 336.0 -->
            <parkingAreaReroute id="9920047055" visible="true"/> <!-- dist: 405.3 -->
            <parkingAreaReroute id="9920047044" visible="true"/> <!-- dist: 438.2 -->
            <parkingAreaReroute id="128001567#1" visible="true"/> <!-- dist: 471.5 -->
            <parkingAreaReroute id="282423433#0" visible="true"/> <!-- dist: 536.3 -->
            <parkingAreaReroute id="9214817340" visible="true"/> <!-- dist: 579.5 -->
            <parkingAreaReroute id="9920035787" visible="true"/> <!-- dist: 633.0 -->
            <parkingAreaReroute id="9311546441" visible="true"/> <!-- dist: 644.1 -->
            <parkingAreaReroute id="3163969119" visible="true"/> <!-- dist: 743.5 -->
            <parkingAreaReroute id="9297813719" visible="true"/> <!-- dist: 808.3 -->
        </interval>
    </rerouter>

    <rerouter id="9920047072" edges="464047500#7">
        <interval begin="0.0" end="86400">
            <!-- in order of distance --> 
            <parkingAreaReroute id="9920047072" visible="true"/> <!-- dist: 0.0 -->
            <parkingAreaReroute id="9920047071" visible="true"/> <!-- dist: 35.9 -->
            <parkingAreaReroute id="9920047055" visible="true"/> <!-- dist: 159.7 -->
            <parkingAreaReroute id="9920047044" visible="true"/> <!-- dist: 192.7 -->
            <parkingAreaReroute id="128001567#1" visible="true"/> <!-- dist: 517.4 -->
            <parkingAreaReroute id="9920035787" visible="true"/> <!-- dist: 557.0 -->
            <parkingAreaReroute id="282423433#0" visible="true"/> <!-- dist: 582.2 -->
            <parkingAreaReroute id="9214817340" visible="true"/> <!-- dist: 625.3 -->
            <parkingAreaReroute id="9311546441" visible="true"/> <!-- dist: 689.9 -->
            <parkingAreaReroute id="3163969119" visible="true"/> <!-- dist: 789.4 -->
            <parkingAreaReroute id="9297813719" visible="true"/> <!-- dist: 854.1 -->
        </interval>
    </rerouter>

    <rerouter id="9923670292" edges="439958483">
        <interval begin="0.0" end="86400">
            <!-- in order of distance --> 
            <parkingAreaReroute id="9923670292" visible="true"/> <!-- dist: 0.0 -->
            <parkingAreaReroute id="7431532519" visible="true"/> <!-- dist: 135.9 -->
            <parkingAreaReroute id="7431532517" visible="true"/> <!-- dist: 145.2 -->
            <parkingAreaReroute id="4321539316" visible="true"/> <!-- dist: 255.6 -->
            <parkingAreaReroute id="3493397473" visible="true"/> <!-- dist: 487.4 -->
        </interval>
    </rerouter>

    <rerouter id="9923670293" edges="439958483">
        <interval begin="0.0" end="86400">
            <!-- in order of distance --> 
            <parkingAreaReroute id="9923670293" visible="true"/> <!-- dist: 0.0 -->
            <parkingAreaReroute id="7431532519" visible="true"/> <!-- dist: 132.6 -->
            <parkingAreaReroute id="7431532517" visible="true"/> <!-- dist: 142.0 -->
            <parkingAreaReroute id="4321539316" visible="true"/> <!-- dist: 252.4 -->
            <parkingAreaReroute id="3493397473" visible="true"/> <!-- dist: 484.2 -->
        </interval>
    </rerouter>
</additional>
