<?xml version="1.0" encoding="UTF-8"?>

<!-- Generated with generateParkingAreasFromOSM.py [https://github.com/lcodeca/SUMOActivityGen] -->

<additional xmlns:xsi="http://www.w3.org/2001/XMLSchema-instance" xsi:noNamespaceSchemaLocation="http://sumo.dlr.de/xsd/additional_file.xsd"> 
    <parkingArea id="9735380721" lane="453727319#2_1" startPos="47.238117033557515" endPos="57.238117033557515" roadsideCapacity="2" friendlyPos="true"/>
    <parkingArea id="9735380733" lane="453506595#1_1" startPos="38.68" endPos="48.68" roadsideCapacity="4" friendlyPos="true"/>
    <parkingArea id="9735380744" lane="1079006202#1_1" startPos="48.379999999999995" endPos="58.379999999999995" roadsideCapacity="6" friendlyPos="true"/>
    <parkingArea id="9735403819" lane="-454019023#2_2" startPos="62.88345456231792" endPos="72.88345456231792" roadsideCapacity="4" friendlyPos="true"/>
    <parkingArea id="9735403822" lane="316470331#5_2" startPos="28.805817647837443" endPos="38.80581764783744" roadsideCapacity="14" friendlyPos="true"/>
    <parkingArea id="9735403824" lane="503887768_1" startPos="43.13699219288402" endPos="53.13699219288402" roadsideCapacity="1" friendlyPos="true"/>
    <parkingArea id="9735403825" lane="1016624295#2_1" startPos="87.28879880637513" endPos="97.28879880637513" roadsideCapacity="4" friendlyPos="true"/>
    <parkingArea id="9735403832" lane="20569525#1_1" startPos="31.119999999999997" endPos="41.12" roadsideCapacity="4" friendlyPos="true"/>
    <parkingArea id="9735403835" lane="1051531397#0_1" startPos="203.31" endPos="213.31" roadsideCapacity="6" friendlyPos="true"/>
    <parkingArea id="9735403838" lane="27925531#1_1" startPos="22.799999999999997" endPos="32.8" roadsideCapacity="5" friendlyPos="true"/>
    <parkingArea id="9735403839" lane="-1079644682#2_1" startPos="34.68" endPos="44.68" roadsideCapacity="2" friendlyPos="true"/>
    <parkingArea id="9735403842" lane="480342542_1" startPos="10.0" endPos="20.0" roadsideCapacity="4" friendlyPos="true"/>
    <parkingArea id="9735403845" lane="20194997#5_1" startPos="156.66" endPos="166.66" roadsideCapacity="3" friendlyPos="true"/>
    <parkingArea id="9735403846" lane="464094038#0_1" startPos="10.0" endPos="20.0" roadsideCapacity="3" friendlyPos="true"/>
    <parkingArea id="9735403854" lane="20188675#1_1" startPos="68.33" endPos="78.33" roadsideCapacity="4" friendlyPos="true"/>
    <parkingArea id="9735403858" lane="20188675#2_1" startPos="10.0" endPos="20.0" roadsideCapacity="4" friendlyPos="true"/>
    <parkingArea id="9735403860" lane="453725263#2_1" startPos="51.93000000000001" endPos="61.93000000000001" roadsideCapacity="6" friendlyPos="true"/>
</additional>
    