<?xml version="1.0" encoding="UTF-8"?>

<!-- generated on 2022-09-25 14:36:44 by Eclipse SUMO netconvert Version 1.14.1
<configuration xmlns:xsi="http://www.w3.org/2001/XMLSchema-instance" xsi:noNamespaceSchemaLocation="http://sumo.dlr.de/xsd/netconvertConfiguration.xsd">

    <input>
        <type-files value="C:\Program%20Files%20(x86)\Eclipse\Sumo\/data/typemap/osmNetconvert.typ.xml,C:\Program%20Files%20(x86)\Eclipse\Sumo\/data/typemap/osmNetconvertBicycle.typ.xml,C:\Program%20Files%20(x86)\Eclipse\Sumo\/data/typemap/osmNetconvertPedestrians.typ.xml"/>
        <osm-files value="osm_bbox.osm.xml"/>
    </input>

    <output>
        <output-file value="osm.net.xml"/>
        <output.street-names value="true"/>
        <output.original-names value="true"/>
        <ptstop-output value="osm_stops.add.xml"/>
        <ptline-output value="osm_ptlines.xml"/>
        <parking-output value="osm_parking.xml"/>
    </output>

    <projection>
        <proj.utm value="true"/>
    </projection>

    <processing>
        <geometry.remove value="true"/>
        <roundabouts.guess value="true"/>
    </processing>

    <tls_building>
        <tls.discard-simple value="true"/>
        <tls.join value="true"/>
        <tls.guess-signals value="true"/>
        <tls.default-type value="actuated"/>
    </tls_building>

    <ramp_guessing>
        <ramps.guess value="true"/>
    </ramp_guessing>

    <edge_removal>
        <keep-edges.components value="1"/>
        <remove-edges.isolated value="true"/>
    </edge_removal>

    <junctions>
        <no-internal-links value="false"/>
        <no-turnarounds value="false"/>
        <no-turnarounds.tls value="false"/>
        <no-turnarounds.geometry value="true"/>
        <no-turnarounds.except-deadend value="true"/>
        <no-turnarounds.except-turnlane value="false"/>
        <no-turnarounds.fringe value="true"/>
        <junctions.join value="true"/>
        <junctions.join-dist value="10"/>
        <junctions.join-same value="true"/>
        <junctions.corner-detail value="5"/>
        <junctions.internal-link-detail value="5"/>
        <check-lane-foes.roundabout value="true"/>
    </junctions>

    <pedestrian>
        <sidewalks.guess value="false"/>
        <sidewalks.guess.max-speed value="13.89"/>
        <sidewalks.guess.min-speed value="5.8"/>
        <sidewalks.guess.from-permissions value="false"/>
        <crossings.guess value="true"/>
        <crossings.guess.speed-threshold value="13.89"/>
        <walkingareas value="false"/>
        <walkingareas.join-dist value="15"/>
    </pedestrian>

    <bicycle>
        <bikelanes.guess value="false"/>
        <bikelanes.guess.max-speed value="22.22"/>
        <bikelanes.guess.min-speed value="5.8"/>
        <bikelanes.guess.from-permissions value="false"/>
    </bicycle>

    <railway>
        <railway.signals.discard value="false"/>
        <railway.topology.repair value="true"/>
        <railway.topology.repair.connect-straight value="true"/>
        <railway.topology.repair.stop-turn value="true"/>
        <railway.topology.all-bidi value="false"/>
        <railway.topology.direction-priority value="false"/>
        <railway.access-distance value="150"/>
        <railway.max-accesses value="5"/>
        <railway.access-factor value="1.5"/>
    </railway>

    <formats>
        <osm.skip-duplicates-check value="false"/>
        <osm.elevation value="true"/>
        <osm.stop-output.length value="25"/>
        <osm.stop-output.length.bus value="15"/>
        <osm.stop-output.length.tram value="25"/>
        <osm.stop-output.length.train value="200"/>
        <osm.all-attributes value="false"/>
    </formats>

    <report>
        <verbose value="true"/>
    </report>

</configuration>
-->

<additional xmlns:xsi="http://www.w3.org/2001/XMLSchema-instance" xsi:noNamespaceSchemaLocation="http://sumo.dlr.de/xsd/additional_file.xsd">
    <busStop id="-1281757675" name="Lucien-L&apos;Allier" lane="-112850607_0" startPos="0.00" endPos="100.00" friendlyPos="true">
        <access lane="-103935602#0_0" pos="26.54" length="35.01" friendlyPos="1"/>
        <access lane="103935601_0" pos="40.59" length="20.10" friendlyPos="1"/>
        <access lane="103935602#0_0" pos="0.40" length="20.91" friendlyPos="1"/>
        <access lane="481492220#2_0" pos="114.08" length="13.73" friendlyPos="1"/>
        <access lane="673699710#1_0" pos="10.27" length="34.41" friendlyPos="1"/>
    </busStop>
    <busStop id="-1281757722" name="Lucien-L&apos;Allier" lane="-112850598_0" startPos="217.25" endPos="317.25" friendlyPos="true">
        <access lane="-103935601_0" pos="7.39" length="36.96" friendlyPos="1"/>
        <access lane="103935601_0" pos="33.21" length="19.86" friendlyPos="1"/>
        <access lane="103935602#0_0" pos="0.00" length="26.48" friendlyPos="1"/>
        <access lane="481492220#2_0" pos="103.17" length="14.52" friendlyPos="1"/>
        <access lane="481492995#1_0" pos="39.01" length="38.63" friendlyPos="1"/>
    </busStop>
    <busStop id="-1281757735" name="Lucien-L&apos;Allier" lane="-766379893_0" startPos="354.87" endPos="454.87" friendlyPos="true">
        <access lane="-103935601_0" pos="11.05" length="4.42" friendlyPos="1"/>
        <access lane="-103935602#0_0" pos="26.94" length="21.23" friendlyPos="1"/>
        <access lane="103935601_0" pos="29.54" length="12.68" friendlyPos="1"/>
        <access lane="481492220#2_0" pos="99.09" length="17.90" friendlyPos="1"/>
        <access lane="481492995#1_0" pos="42.27" length="5.99" friendlyPos="1"/>
    </busStop>
    <busStop id="-1281757755" name="Lucien-L&apos;Allier" lane="-112850605_0" startPos="149.93" endPos="249.93" friendlyPos="true">
        <access lane="-103935601_0" pos="26.77" length="5.37" friendlyPos="1"/>
        <access lane="-134811810#6_0" pos="0.00" length="25.53" friendlyPos="1"/>
        <access lane="103935601_0" pos="13.82" length="11.73" friendlyPos="1"/>
        <access lane="481492220#2_0" pos="83.39" length="16.50" friendlyPos="1"/>
        <access lane="481492995#1_0" pos="57.99" length="6.49" friendlyPos="1"/>
    </busStop>
    <busStop id="-1281757769" name="Lucien-L&apos;Allier" lane="-112850606_0" startPos="149.25" endPos="249.25" friendlyPos="true">
        <access lane="-103935601_0" pos="34.48" length="5.07" friendlyPos="1"/>
        <access lane="-134811810#6_0" pos="0.00" length="14.12" friendlyPos="1"/>
        <access lane="103935601_0" pos="6.11" length="12.03" friendlyPos="1"/>
        <access lane="481492220#2_0" pos="75.67" length="16.58" friendlyPos="1"/>
        <access lane="481492995#1_0" pos="65.70" length="5.96" friendlyPos="1"/>
    </busStop>
    <busStop id="-1281757787" name="Lucien-L&apos;Allier" lane="-112850602_0" startPos="193.62" endPos="293.62" friendlyPos="true">
        <access lane="-103935601_0" pos="22.27" length="4.87" friendlyPos="1"/>
        <access lane="-134811810#6_0" pos="0.00" length="32.17" friendlyPos="1"/>
        <access lane="103935601_0" pos="18.33" length="12.23" friendlyPos="1"/>
        <access lane="481492220#2_0" pos="87.88" length="17.13" friendlyPos="1"/>
        <access lane="481492995#1_0" pos="53.48" length="6.12" friendlyPos="1"/>
    </busStop>
    <busStop id="-1281757801" name="Lucien-L&apos;Allier" lane="-112850610_0" startPos="129.46" endPos="229.46" friendlyPos="true">
        <access lane="-103935601_0" pos="3.17" length="36.56" friendlyPos="1"/>
        <access lane="-103935602#0_0" pos="26.94" length="36.27" friendlyPos="1"/>
        <access lane="103935601_0" pos="37.42" length="19.46" friendlyPos="1"/>
        <access lane="103935602#0_0" pos="0.00" length="22.95" friendlyPos="1"/>
        <access lane="481492220#2_0" pos="107.38" length="14.00" friendlyPos="1"/>
    </busStop>
    <busStop id="-1457825329" name="Côte-des-Neiges / Summerhill" lane="-143920958#3_1" startPos="0.00" endPos="12.45" friendlyPos="true" lines="165-N 66-N"/>
    <busStop id="-208949374" name="Guy-Concordia" lane="-164831271_0" startPos="0.00" endPos="193.79" friendlyPos="true">
        <access lane="-330153470#1_0" pos="10.53" length="16.33" friendlyPos="1"/>
        <access lane="330153470#1_0" pos="41.41" length="7.03" friendlyPos="1"/>
        <access lane="391085483#1_0" pos="39.80" length="8.56" friendlyPos="1"/>
        <access lane="398547483#0_0" pos="8.58" length="23.68" friendlyPos="1"/>
        <access lane="399816159#0_0" pos="92.33" length="4.85" friendlyPos="1"/>
    </busStop>
    <busStop id="-208949381" name="Peel" lane="-164831271_0" startPos="683.74" endPos="883.74" friendlyPos="true"/>
    <busStop id="-208949385" name="McGill" lane="-164831271_0" startPos="1159.15" endPos="1359.15" friendlyPos="true"/>
    <busStop id="-208949390" name="Place-des-Arts" lane="-164831271_0" startPos="1666.98" endPos="1866.98" friendlyPos="true"/>
    <busStop id="-208949406" name="Saint-Laurent" lane="-164831271_0" startPos="2099.41" endPos="2299.41" friendlyPos="true"/>
    <busStop id="-2091616661" name="du Centre / de la Sucrerie" lane="-1042470293#0_1" startPos="88.61" endPos="103.61" friendlyPos="true" lines="107-S 71-N"/>
    <busStop id="-213329687" name="Atwater" lane="-784099214#1_0" startPos="8431.82" endPos="8631.82" friendlyPos="true">
        <access lane="-107696154#0_0" pos="136.68" length="8.07" friendlyPos="1"/>
        <access lane="107696154#0_0" pos="45.40" length="6.78" friendlyPos="1"/>
        <access lane="453949527_0" pos="0.00" length="74.28" friendlyPos="1"/>
        <access lane="474841415#1_0" pos="86.36" length="75.87" friendlyPos="1"/>
        <access lane="924892081#3_0" pos="76.14" length="89.42" friendlyPos="1"/>
    </busStop>
    <busStop id="-213331953" name="Charlevoix" lane="-784099214#1_0" startPos="5598.16" endPos="5798.16" friendlyPos="true">
        <access lane="-121905758#0_0" pos="265.16" length="565.37" friendlyPos="1"/>
        <access lane="121905758#0_0" pos="238.73" length="563.87" friendlyPos="1"/>
    </busStop>
    <busStop id="-213403939" name="Papineau" lane="-164831271_0" startPos="3828.45" endPos="4028.45" friendlyPos="true"/>
    <busStop id="-213403941" name="Beaudry" lane="-164831271_0" startPos="3228.21" endPos="3428.21" friendlyPos="true"/>
    <busStop id="-218283857" name="Frontenac" lane="-164831271_0" startPos="5051.02" endPos="5251.02" friendlyPos="true"/>
    <busStop id="-218356337" name="Préfontaine" lane="-164831271_0" startPos="6215.50" endPos="6415.50" friendlyPos="true"/>
    <busStop id="-218356349" name="Joliette" lane="-164831271_0" startPos="6839.04" endPos="7039.04" friendlyPos="true"/>
    <busStop id="-225689808" name="Jolicoeur" lane="-784099214#1_0" startPos="2062.26" endPos="2262.26" friendlyPos="true"/>
    <busStop id="-225690774" name="Monk" lane="-784099214#1_0" startPos="882.64" endPos="1082.64" friendlyPos="true"/>
    <busStop id="-2264682033" name="Guy / Paxton" lane="-329988460#3_2" startPos="29.82" endPos="40.43" friendlyPos="true" lines="36-E"/>
    <busStop id="-246654576" name="Assomption" lane="-164831271_0" startPos="9501.38" endPos="9701.38" friendlyPos="true"/>
    <busStop id="-246655684" name="Cadillac" lane="-164831271_0" startPos="10429.29" endPos="10629.29" friendlyPos="true"/>
    <busStop id="-246656707" name="Langelier" lane="-164831271_0" startPos="11141.75" endPos="11341.75" friendlyPos="true"/>
    <busStop id="-246656708" name="Radisson" lane="-164831271_0" startPos="11911.74" endPos="12111.74" friendlyPos="true"/>
    <busStop id="-246656713" name="Honoré-Beaugrand" lane="-164831271_0" startPos="12778.13" endPos="12967.30" friendlyPos="true"/>
    <busStop id="-2471652365" name="Verdun" lane="-784099214#1_0" startPos="3139.45" endPos="3339.45" friendlyPos="true"/>
    <busStop id="-26232890" name="Viau" lane="-164831271_0" startPos="8527.17" endPos="8727.17" friendlyPos="true"/>
    <busStop id="-264271702" name="Pie IX" lane="-164831271_0" startPos="7678.49" endPos="7878.49" friendlyPos="true"/>
    <busStop id="-2687686456" name="De Condé / du Centre" lane="-1042470293#2_1" startPos="0.00" endPos="7.50" friendlyPos="true" lines="57-O"/>
    <busStop id="-2687686486" name="Wellington / Bridge" lane="-37722304_1" startPos="60.05" endPos="75.05" friendlyPos="true" lines="107-S"/>
    <busStop id="-2687914648" name="Notre-Dame / Dominion" lane="-545490137#1_1" startPos="24.78" endPos="39.78" friendlyPos="true" lines="36-E 35-E"/>
    <busStop id="-2687914652" name="Notre-Dame / Georges-Vanier" lane="-545490137#1_1" startPos="120.25" endPos="132.97" friendlyPos="true" lines="36-E 35-E"/>
    <busStop id="-2701338580" name="du Centre / De Condé" lane="-1042470291_1" startPos="53.73" endPos="68.73" friendlyPos="true" lines="107-S"/>
    <busStop id="-311564344" name="LaSalle" lane="-784099214#1_0" startPos="4676.90" endPos="4876.90" friendlyPos="true"/>
    <busStop id="-311564349" name="De l&apos;Église" lane="-784099214#1_0" startPos="3782.20" endPos="3982.20" friendlyPos="true"/>
    <busStop id="-311564466" name="Angrignon" lane="-784099214#1_0" startPos="0.00" endPos="100.00" friendlyPos="true"/>
    <busStop id="-3676828784" name="Lionel-Groulx" lane="-784099214#1_0" startPos="6747.36" endPos="6947.36" friendlyPos="true">
        <access lane="792160910#2_0" pos="58.30" length="94.86" friendlyPos="1"/>
        <access lane="792160913#0_0" pos="18.76" length="84.79" friendlyPos="1"/>
        <access lane="792160913#1_0" pos="0.00" length="91.86" friendlyPos="1"/>
        <access lane="792160914_0" pos="39.49" length="96.90" friendlyPos="1"/>
        <access lane="961683175_0" pos="0.00" length="99.56" friendlyPos="1"/>
    </busStop>
    <busStop id="-4034535844" name="Station Guy-Concordia (Guy / De Maisonneuve)" lane="-455083993#2_1" startPos="3.99" endPos="18.99" friendlyPos="true" lines="66-S 66-N"/>
    <busStop id="-427618245" name="École de technologie supérieure (Peel/Notre-Dame)" lane="-37722302#1_1" startPos="167.84" endPos="182.84" friendlyPos="true" lines="107-S"/>
    <busStop id="-4744256621" name="de la Montagne / René-Lévesque" lane="-134811810#3_1" startPos="97.31" endPos="109.37" friendlyPos="true"/>
    <busStop id="-504318025" name="Station Guy-Concordia (Guy / De Maisonneuve)" lane="-165217827#4_1" startPos="0.00" endPos="7.50" friendlyPos="true" lines="165-N"/>
    <busStop id="-504318025@8873299" name="Station Guy-Concordia (Guy / De Maisonneuve)" lane="-455083993#2_1" startPos="65.04" endPos="79.43" friendlyPos="true" lines="165-S"/>
    <busStop id="-5228487326" name="Berri-UQAM" lane="-164831271_0" startPos="2622.82" endPos="2822.82" friendlyPos="true"/>
    <busStop id="-5330993593" name="Lionel-Groulx" lane="-784099214#1_0" startPos="6751.15" endPos="6951.15" friendlyPos="true">
        <access lane="792160910#2_0" pos="62.09" length="95.07" friendlyPos="1"/>
        <access lane="792160913#0_0" pos="15.02" length="85.04" friendlyPos="1"/>
        <access lane="792160913#1_0" pos="0.00" length="94.26" friendlyPos="1"/>
        <access lane="792160914_0" pos="39.49" length="102.37" friendlyPos="1"/>
        <access lane="961683175_0" pos="0.00" length="105.14" friendlyPos="1"/>
    </busStop>
    <busStop id="-5754358292" name="Wellington / Peel" lane="-37722301#2_1" startPos="54.93" endPos="66.26" friendlyPos="true" lines="35-O"/>
    <busStop id="-5754358293" name="Wellington / Ann" lane="-361815166#0_1" startPos="119.94" endPos="134.94" friendlyPos="true" lines="35-O"/>
    <busStop id="-5754358295" name="Peel / Wellington" lane="-455712869#1_1" startPos="141.40" endPos="156.40" friendlyPos="true" lines="107-S"/>
    <busStop id="-5754358296" name="Peel / Ottawa" lane="-455712867#1_1" startPos="151.49" endPos="162.25" friendlyPos="true" lines="107-S"/>
    <busStop id="-6010965405" name="Guy / Saint-Antoine" lane="-465656094#1_2" startPos="8.56" endPos="23.56" friendlyPos="true" lines="57-E"/>
    <busStop id="-6010965967" name="Guy / René-Lévesque" lane="-455083994#2_2" startPos="0.00" endPos="10.37" friendlyPos="true" lines="165-S 66-S 66-N"/>
    <busStop id="-6010966435" name="Notre-Dame / de la Montagne" lane="-1041940066#1_1" startPos="62.69" endPos="77.69" friendlyPos="true" lines="35-E"/>
    <busStop id="-6010968609" name="William / des Seigneurs" lane="-1042467341#1_1" startPos="29.98" endPos="44.98" friendlyPos="true" lines="57-E"/>
    <busStop id="-6010968651" name="de la Montagne / Ottawa" lane="-455713130#1_1" startPos="0.00" endPos="9.81" friendlyPos="true" lines="35-O"/>
    <busStop id="-6010969801" name="des Seigneurs / Basin" lane="-1042467342#1_1" startPos="16.52" endPos="31.52" friendlyPos="true"/>
    <busStop id="-6010969834" name="Notre-Dame / de Versailles" lane="-1041940066#5_1" startPos="45.56" endPos="60.56" friendlyPos="true" lines="35-E"/>
    <busStop id="-6010969842" name="de la Montagne / Wellington" lane="-455713130#2_1" startPos="33.89" endPos="48.89" friendlyPos="true" lines="35-O"/>
    <busStop id="-6010969844" name="Peel / Saint-Jacques" lane="-354710422#0_1" startPos="36.55" endPos="51.55" friendlyPos="true" lines="107-S"/>
    <busStop id="-6010970018" name="Guy / René-Lévesque" lane="-41258976#2_2" startPos="39.85" endPos="51.66" friendlyPos="true" lines="747-E"/>
    <busStop id="-6010970054" name="Sherbrooke / Côte-des-Neiges" lane="-465408860#0_1" startPos="0.00" endPos="7.51" friendlyPos="true" lines="24-O"/>
    <busStop id="-6010970163" name="Guy / Saint-Jacques" lane="-329988460#1_2" startPos="179.90" endPos="194.90" friendlyPos="true" lines="36-E"/>
    <busStop id="-6010970833" name="de la Montagne / Barré" lane="-573448691#0_1" startPos="14.90" endPos="29.90" friendlyPos="true" lines="35-O"/>
    <busStop id="-6010971144" name="Côte-des-Neiges / Sherbrooke" lane="-41258974#1_1" startPos="47.43" endPos="62.43" friendlyPos="true" lines="165-N 66-N"/>
    <busStop id="-6010971829" name="Sherbrooke / Saint-Mathieu" lane="-165217870#1_1" startPos="70.05" endPos="85.05" friendlyPos="true" lines="24-O"/>
    <busStop id="-6010972098" name="Notre-Dame / Guy" lane="-165217829#1_1" startPos="83.48" endPos="98.00" friendlyPos="true" lines="35-E"/>
    <busStop id="-6010972616" name="Sainte-Catherine / Greene" lane="-92352264_1" startPos="120.83" endPos="135.83" friendlyPos="true" lines="90-O"/>
    <busStop id="-6010973708" name="Sainte-Catherine / Wood" lane="-92352263#1_1" startPos="53.34" endPos="68.34" friendlyPos="true" lines="90-O"/>
    <busStop id="-6010975601" name="Station Atwater (Tupper / Atwater)" lane="-329694557_1" startPos="63.26" endPos="78.26" friendlyPos="true" lines="90-O"/>
    <busStop id="-6010976380" name="Shearer / Saint-Patrick" lane="-20113489#0_1" startPos="72.70" endPos="87.70" friendlyPos="true"/>
    <busStop id="-6010980123" name="de la Sucrerie / Grand Trunk" lane="-20113825#0_1" startPos="14.81" endPos="29.81" friendlyPos="true" lines="57-O"/>
    <busStop id="-6010980150" name="Place Alexis-Nihon (Ste-Catherine/No 4026)" lane="-92352263#3_1" startPos="0.00" endPos="8.31" friendlyPos="true" lines="90-O"/>
    <busStop id="-6010980155" name="Collège Dawson (Sherbrooke/No 3040)" lane="-329067231#5_1" startPos="42.40" endPos="57.40" friendlyPos="true" lines="24-O 104-O"/>
    <busStop id="-6010981007" name="Wellington / Robert-Bourassa" lane="-360802894#1_1" startPos="53.84" endPos="68.84" friendlyPos="true" lines="35-O"/>
    <busStop id="-6010981038" name="Sherbrooke / Chomedey" lane="-465408857#1_1" startPos="69.87" endPos="82.71" friendlyPos="true" lines="24-O"/>
    <busStop id="-6010981124" name="de la Montagne / William" lane="-455722367#1_1" startPos="20.45" endPos="34.12" friendlyPos="true" lines="35-O"/>
    <busStop id="-6010981242" name="Station Atwater (Tupper / Atwater)" lane="-329694557_1" startPos="28.61" endPos="43.61" friendlyPos="true" lines="108-O"/>
    <busStop id="-6010981282" name="Guy / Sainte-Catherine" lane="-455083994#2_2" startPos="0.00" endPos="10.37" friendlyPos="true" lines="427-O"/>
    <busStop id="-6010981492" name="Sherbrooke / Saint-Marc" lane="-465411712#0_1" startPos="20.15" endPos="35.15" friendlyPos="true" lines="24-O"/>
    <busStop id="-6274677571" name="Notre-Dame / des Seigneurs" lane="-165217829#9_1" startPos="72.37" endPos="87.37" friendlyPos="true" lines="36-E 35-E"/>
    <busStop id="-8583333166" name="Berri-UQAM" lane="-164831271_0" startPos="2653.53" endPos="2853.53" friendlyPos="true"/>
    <busStop id="-869524307" name="Saint-Antoine / Greene" lane="-678887672#3_1" startPos="0.00" endPos="13.47" friendlyPos="true" lines="78-O"/>
    <busStop id="-98943391" name="Lucien-L&apos;Allier" lane="-103974916_0" startPos="0.00" endPos="100.00" friendlyPos="true">
        <access lane="-103935601_0" pos="15.17" length="4.55" friendlyPos="1"/>
        <access lane="-103935602#0_0" pos="26.94" length="27.37" friendlyPos="1"/>
        <access lane="103935601_0" pos="25.43" length="12.55" friendlyPos="1"/>
        <access lane="481492220#2_0" pos="94.98" length="17.65" friendlyPos="1"/>
        <access lane="481492995#1_0" pos="46.38" length="6.00" friendlyPos="1"/>
    </busStop>
    <busStop id="1281757675" name="Lucien-L&apos;Allier" lane="112850607_0" startPos="170.52" endPos="270.52" friendlyPos="true">
        <access lane="-103935602#0_0" pos="26.54" length="35.01" friendlyPos="1"/>
        <access lane="103935601_0" pos="40.59" length="20.10" friendlyPos="1"/>
        <access lane="103935602#0_0" pos="0.40" length="20.91" friendlyPos="1"/>
        <access lane="481492220#2_0" pos="114.08" length="13.73" friendlyPos="1"/>
        <access lane="673699710#1_0" pos="10.27" length="34.41" friendlyPos="1"/>
    </busStop>
    <busStop id="1281757722" name="Lucien-L&apos;Allier" lane="112850598_0" startPos="0.00" endPos="100.00" friendlyPos="true">
        <access lane="-103935601_0" pos="7.39" length="36.96" friendlyPos="1"/>
        <access lane="103935601_0" pos="33.21" length="19.86" friendlyPos="1"/>
        <access lane="103935602#0_0" pos="0.00" length="26.48" friendlyPos="1"/>
        <access lane="481492220#2_0" pos="103.17" length="14.52" friendlyPos="1"/>
        <access lane="481492995#1_0" pos="39.01" length="38.63" friendlyPos="1"/>
    </busStop>
    <busStop id="1281757735" name="Lucien-L&apos;Allier" lane="112850603_0" startPos="0.00" endPos="100.00" friendlyPos="true">
        <access lane="-103935601_0" pos="11.05" length="4.42" friendlyPos="1"/>
        <access lane="-103935602#0_0" pos="26.94" length="21.23" friendlyPos="1"/>
        <access lane="103935601_0" pos="29.54" length="12.68" friendlyPos="1"/>
        <access lane="481492220#2_0" pos="99.09" length="17.90" friendlyPos="1"/>
        <access lane="481492995#1_0" pos="42.27" length="5.99" friendlyPos="1"/>
    </busStop>
    <busStop id="1281757755" name="Lucien-L&apos;Allier" lane="112850605_0" startPos="0.00" endPos="100.00" friendlyPos="true">
        <access lane="-103935601_0" pos="26.77" length="5.37" friendlyPos="1"/>
        <access lane="-134811810#6_0" pos="0.00" length="25.53" friendlyPos="1"/>
        <access lane="103935601_0" pos="13.82" length="11.73" friendlyPos="1"/>
        <access lane="481492220#2_0" pos="83.39" length="16.50" friendlyPos="1"/>
        <access lane="481492995#1_0" pos="57.99" length="6.49" friendlyPos="1"/>
    </busStop>
    <busStop id="1281757769" name="Lucien-L&apos;Allier" lane="112850606_0" startPos="0.00" endPos="100.00" friendlyPos="true">
        <access lane="-103935601_0" pos="34.48" length="5.07" friendlyPos="1"/>
        <access lane="-134811810#6_0" pos="0.00" length="14.12" friendlyPos="1"/>
        <access lane="103935601_0" pos="6.11" length="12.03" friendlyPos="1"/>
        <access lane="481492220#2_0" pos="75.67" length="16.58" friendlyPos="1"/>
        <access lane="481492995#1_0" pos="65.70" length="5.96" friendlyPos="1"/>
    </busStop>
    <busStop id="1281757787" name="Lucien-L&apos;Allier" lane="112850602_0" startPos="0.00" endPos="100.00" friendlyPos="true">
        <access lane="-103935601_0" pos="22.27" length="4.87" friendlyPos="1"/>
        <access lane="-134811810#6_0" pos="0.00" length="32.17" friendlyPos="1"/>
        <access lane="103935601_0" pos="18.33" length="12.23" friendlyPos="1"/>
        <access lane="481492220#2_0" pos="87.88" length="17.13" friendlyPos="1"/>
        <access lane="481492995#1_0" pos="53.48" length="6.12" friendlyPos="1"/>
    </busStop>
    <busStop id="1281757801" name="Lucien-L&apos;Allier" lane="112850610_0" startPos="0.00" endPos="100.00" friendlyPos="true">
        <access lane="-103935601_0" pos="3.17" length="36.56" friendlyPos="1"/>
        <access lane="-103935602#0_0" pos="26.94" length="36.27" friendlyPos="1"/>
        <access lane="103935601_0" pos="37.42" length="19.46" friendlyPos="1"/>
        <access lane="103935602#0_0" pos="0.00" length="22.95" friendlyPos="1"/>
        <access lane="481492220#2_0" pos="107.38" length="14.00" friendlyPos="1"/>
    </busStop>
    <busStop id="1457813196" name="Côte-des-Neiges / du Docteur-Penfield" lane="4872827_1" startPos="19.11" endPos="34.11" friendlyPos="true" lines="165-N 66-N"/>
    <busStop id="1465572617" name="du Docteur-Penfield / Côte-des-Neiges" lane="453745802_1" startPos="0.00" endPos="13.37" friendlyPos="true" lines="165-S"/>
    <busStop id="1465572617@9320534" name="du Docteur-Penfield / Côte-des-Neiges" lane="48678910#0_1" startPos="1.06" endPos="16.06" friendlyPos="true" lines="66-S"/>
    <busStop id="208949374" name="Guy-Concordia" lane="164831271_0" startPos="12773.51" endPos="12973.51" friendlyPos="true" lines="1">
        <access lane="-330153470#1_0" pos="10.53" length="16.33" friendlyPos="1"/>
        <access lane="330153470#1_0" pos="41.41" length="7.03" friendlyPos="1"/>
        <access lane="391085483#1_0" pos="39.80" length="8.56" friendlyPos="1"/>
        <access lane="398547483#0_0" pos="8.58" length="23.68" friendlyPos="1"/>
        <access lane="399816159#0_0" pos="92.33" length="4.85" friendlyPos="1"/>
    </busStop>
    <busStop id="208949381" name="Peel" lane="164831271_0" startPos="12083.57" endPos="12283.57" friendlyPos="true" lines="1"/>
    <busStop id="208949385" name="McGill" lane="164831271_0" startPos="11608.15" endPos="11808.15" friendlyPos="true" lines="1"/>
    <busStop id="208949390" name="Place-des-Arts" lane="164831271_0" startPos="11100.32" endPos="11300.32" friendlyPos="true" lines="1"/>
    <busStop id="208949406" name="Saint-Laurent" lane="164831271_0" startPos="10667.90" endPos="10867.90" friendlyPos="true" lines="1"/>
    <busStop id="2091616651" lane="20113489#4_1" startPos="0.00" endPos="14.14" friendlyPos="true"/>
    <busStop id="2091616655" name="Shearer / Richardson" lane="20113489#1_1" startPos="61.95" endPos="72.27" friendlyPos="true" lines="57-E"/>
    <busStop id="2091616656" lane="20113489#1_1" startPos="62.65" endPos="72.27" friendlyPos="true"/>
    <busStop id="2091616660" lane="1042470293#0_1" startPos="4.00" endPos="19.00" friendlyPos="true"/>
    <busStop id="2091616663" name="du Centre / de la Sucrerie" lane="1042470293#0_1" startPos="31.99" endPos="46.99" friendlyPos="true" lines="107-N 71-S"/>
    <busStop id="2091616667" lane="1042470293#0_1" startPos="32.92" endPos="47.92" friendlyPos="true"/>
    <busStop id="2106085871" lane="509777718#1_1" startPos="45.97" endPos="60.97" friendlyPos="true"/>
    <busStop id="2106085874" name="Station de métro Lionel-Groulx" lane="792160913#1_1" startPos="46.51" endPos="61.51" friendlyPos="true" lines="747-E"/>
    <busStop id="2106085876" lane="792160913#1_1" startPos="43.69" endPos="58.69" friendlyPos="true"/>
    <busStop id="213329687" name="Atwater" lane="784099214#1_0" startPos="63.34" endPos="263.34" friendlyPos="true" lines="1">
        <access lane="-107696154#0_0" pos="136.68" length="8.07" friendlyPos="1"/>
        <access lane="107696154#0_0" pos="45.40" length="6.78" friendlyPos="1"/>
        <access lane="453949527_0" pos="0.00" length="74.28" friendlyPos="1"/>
        <access lane="474841415#1_0" pos="86.36" length="75.87" friendlyPos="1"/>
        <access lane="924892081#3_0" pos="76.14" length="89.42" friendlyPos="1"/>
    </busStop>
    <busStop id="213331953" name="Charlevoix" lane="784099214#1_0" startPos="2897.01" endPos="3097.01" friendlyPos="true" lines="1">
        <access lane="-121905758#0_0" pos="265.16" length="565.37" friendlyPos="1"/>
        <access lane="121905758#0_0" pos="238.73" length="563.87" friendlyPos="1"/>
    </busStop>
    <busStop id="213403939" name="Papineau" lane="164831271_0" startPos="8938.85" endPos="9138.85" friendlyPos="true" lines="1"/>
    <busStop id="213403941" name="Beaudry" lane="164831271_0" startPos="9539.10" endPos="9739.10" friendlyPos="true" lines="1"/>
    <busStop id="218283857" name="Frontenac" lane="164831271_0" startPos="7716.29" endPos="7916.29" friendlyPos="true" lines="1"/>
    <busStop id="218356337" name="Préfontaine" lane="164831271_0" startPos="6551.80" endPos="6751.80" friendlyPos="true" lines="1"/>
    <busStop id="218356349" name="Joliette" lane="164831271_0" startPos="5928.27" endPos="6128.27" friendlyPos="true" lines="1"/>
    <busStop id="225689808" name="Jolicoeur" lane="784099214#1_0" startPos="6432.90" endPos="6632.90" friendlyPos="true" lines="1"/>
    <busStop id="225690774" name="Monk" lane="784099214#1_0" startPos="7612.52" endPos="7812.52" friendlyPos="true" lines="1"/>
    <busStop id="2264682031" lane="329988460#3_2" startPos="0.00" endPos="12.43" friendlyPos="true"/>
    <busStop id="2264682032" name="Guy / Paxton" lane="329988460#1_2" startPos="180.67" endPos="195.67" friendlyPos="true" lines="57-E 36-O"/>
    <busStop id="2264682034" lane="329988460#1_2" startPos="182.30" endPos="197.30" friendlyPos="true"/>
    <busStop id="246654576" name="Assomption" lane="164831271_0" startPos="3265.93" endPos="3465.93" friendlyPos="true" lines="1"/>
    <busStop id="246655684" name="Cadillac" lane="164831271_0" startPos="2338.01" endPos="2538.01" friendlyPos="true" lines="1"/>