<?xml version="1.0" encoding="UTF-8"?>

<!-- generated on 2022-09-25 14:36:47.399752 by $Id: ptlines2flows.py v1_3_1+0313-ccb31df3eb jakob.erdmann@dlr.de 2019-09-02 13:26:32 +0200 $ v1_14_1+0000-f654d7b963e
  options: 
-->

<routes xmlns:xsi="http://www.w3.org/2001/XMLSchema-instance" xsi:noNamespaceSchemaLocation="http://sumo.dlr.de/xsd/routes_file.xsd">
    <vType id="pt_bus" vClass="bus"/>
    <vType id="pt_tram" vClass="tram"/>
    <vType id="pt_train" vClass="rail"/>
    <vType id="pt_subway" vClass="rail_urban"/>
    <vType id="pt_light_rail" vClass="rail_urban"/>
    <vType id="pt_monorail" vClass="rail"/>
    <vType id="pt_trolleybus" vClass="bus"/>
    <vType id="pt_minibus" vClass="bus"/>
    <vType id="pt_share_taxi" vClass="taxi"/>
    <vType id="pt_aerialway" vClass="bus"/>
    <vType id="pt_ferry" vClass="ship"/>
    <route id="pt_bus_144-O:0" edges="465159973 727849147#0 727849147#1 48680974#0 329694550 165217772#0 165217772#1" >
        <stop busStop="6010980478" duration="20" until="35.0"/> <!-- Hôpital général (des Pins/Côte-des-Neiges) -->
        <stop busStop="6010967053" duration="20" until="130.0"/> <!-- Atwater / Saint-Sulpice -->
    </route>
    <route id="pt_bus_57-O:0" edges="-1042470293#2 -1042470293#1 -1042470293#0 -20113825#1 -20113825#0" >
        <stop busStop="-2687686456" duration="20" until="31.0"/> <!-- De Condé / du Centre -->
        <stop busStop="-6010980123" duration="20" until="104.0"/> <!-- de la Sucrerie / Grand Trunk -->
    </route>
    <route id="pt_bus_24-E:0" edges="561490751#0 561490751#2 561490749 561490748#0 561490748#1 465408864#0 465408864#3 465408864#4 465408857#0 465408857#1 465408857#2 465408857#3 465408862#1 465408862#2 465408862#3 465408862#4 465411711#1 165217870#1" >
        <stop busStop="6010981247" duration="20" until="31.0"/> <!-- Sherbrooke / Atwater -->
        <stop busStop="6010979145" duration="20" until="89.0"/> <!-- Sherbrooke / Chomedey -->
        <stop busStop="6010971302" duration="20" until="157.0"/> <!-- Sherbrooke / Saint-Marc -->
        <stop busStop="6010965396" duration="20" until="228.0"/> <!-- Sherbrooke / Saint-Mathieu -->
        <stop busStop="6010964910" duration="20" until="276.0"/> <!-- Sherbrooke / Côte-des-Neiges -->
    </route>
    <route id="pt_bus_165-N:0" edges="-165217827#4 -165217827#3 -165217827#2 -165217827#1 -41258974#2 -41258974#1 -41258974#0 -143920958#3 -143920958#2 -143920958#1 -143920958#0 4872827 453745825#0 453745825#1 165217806 727849147#0" >
        <stop busStop="-504318025" duration="20" until="31.0"/> <!-- Station Guy-Concordia (Guy / De Maisonneuve) -->
        <stop busStop="-6010971144" duration="20" until="125.0"/> <!-- Côte-des-Neiges / Sherbrooke -->
        <stop busStop="-1457825329" duration="20" until="172.0"/> <!-- Côte-des-Neiges / Summerhill -->
        <stop busStop="1457813196" duration="20" until="235.0"/> <!-- Côte-des-Neiges / du Docteur-Penfield -->
        <stop busStop="6010966218" duration="20" until="313.0"/> <!-- Hôpital général (des Pins/Côte-des-Neiges) -->
    </route>
    <route id="pt_bus_15-E:0" edges="394910074#0 329694554#0 329694554#1 329694554#2 329694554#3 329694554#4 329694554#5 329694554#7 329694554#10 329694554#11" >
        <stop busStop="6010966061" duration="20" until="36.0"/> <!-- Station Atwater (Sainte-Catherine / Atwater) -->
        <stop busStop="6010977514" duration="20" until="109.0"/> <!-- Sainte-Catherine / du Fort -->
        <stop busStop="6010968682" duration="20" until="181.0"/> <!-- Sainte-Catherine / Saint-Mathieu -->
        <stop busStop="6010975640" duration="20" until="241.0"/> <!-- Sainte-Catherine / Guy -->
    </route>
    <route id="pt_bus_747-E:0" edges="792160913#1 463671313#1 463671313#2 463671313#3 231387458#0 231387458#1 231387458#2 231387458#3 728796869#0 728796869#2 329989224#0 329989224#1 329989224#2 453964887#0 453964892#1 455083968#1 455083976#0 41258973#1 41258973#2 41258976#1 41258976#3 41258976#4 111771070 465656094#0 465656094#1 111771067#1 -347724804 347724804 -111771067#1 -465656094#1 -465656094#0 -111771070 -41258976#4 -41258976#3 -41258976#2" >
        <stop busStop="2106085874" duration="20" until="44.0"/> <!-- Station de métro Lionel-Groulx -->
        <stop busStop="-6010970018" duration="20" until="373.0"/> <!-- Guy / René-Lévesque -->
    </route>
    <route id="pt_bus_427-O:0" edges="455083984#2 455083979#1 455083981#1 -455083994#2 -455083993#3 -455083993#2 -455083993#0 330153470#0 330153470#1 330150736#0" >
        <stop busStop="4030794085" duration="20" until="40.0"/> <!-- René-Lévesque / Bishop -->
        <stop busStop="6010968827" duration="20" until="121.0"/> <!-- René-Lévesque / Guy -->
        <stop busStop="-6010981282" duration="20" until="160.0"/> <!-- Guy / Sainte-Catherine -->
        <stop busStop="6010966040" duration="20" until="258.0"/> <!-- Station Guy-Concordia (Maisonneuve / St-Mathieu) -->
    </route>
    <route id="pt_bus_144-E:0" edges="329694559#0 329694559#1 329694559#2 329694559#3 231387459 453949528 474841418#0 474841418#1 165217771#2 918602130 918602131#0 918602131#1 453745794#1 453745794#2 165217769 453745799 143920959#0" >
        <stop busStop="6010967076" duration="20" until="31.0"/> <!-- Station Atwater (Atwater / Tupper) -->
        <stop busStop="6010974370" duration="20" until="129.0"/> <!-- Atwater / Lincoln -->
        <stop busStop="6010978061" duration="20" until="172.0"/> <!-- Atwater / Sherbrooke -->
        <stop busStop="6010970373" duration="20" until="242.0"/> <!-- Atwater / Picquet -->
        <stop busStop="6010965736" duration="20" until="296.0"/> <!-- Atwater / du Docteur-Penfield -->
    </route>
    <route id="pt_bus_427-E:0" edges="330150736#0 330150736#1 330150434#0 330150434#1 330150434#2 330150434#5 330150434#6 330150434#7 330150434#8 1051530916#0 41258973#1 41258973#2 455083980#0 455083970#1" >
        <stop busStop="6010966040" duration="20" until="41.0"/> <!-- Station Guy-Concordia (Maisonneuve / St-Mathieu) -->
        <stop busStop="6010977969" duration="20" until="138.0"/> <!-- Saint-Mathieu / Sainte-Catherine -->
        <stop busStop="6010971108" duration="20" until="239.0"/> <!-- René-Lévesque / Guy -->
        <stop busStop="6010975333" duration="20" until="298.0"/> <!-- René-Lévesque / Bishop -->
    </route>
    <route id="pt_bus_75-N:0" edges="456353760#1 37722302#1" >
        <stop busStop="427618243" duration="20" until="52.0"/> <!-- Peel / Notre-Dame -->
        <stop busStop="427618242" duration="20" until="134.0"/> <!-- Peel / Saint-Jacques -->
    </route>
    <route id="pt_bus_24-O:0" edges="-465408860#0 -165217870#2 -165217870#1 -465411712#0 -465408862#4 -465408862#3 -465408862#2 -465408862#1 -465408857#3 -465408857#2 -465408857#1 -465408857#0 -465408864#4 -465408864#3 -465408864#0 561490750#0 561490750#2 561490747 561490746#0 561490746#1 -329067231#5" >
        <stop busStop="-6010970054" duration="20" until="31.0"/> <!-- Sherbrooke / Côte-des-Neiges -->
        <stop busStop="-6010971829" duration="20" until="115.0"/> <!-- Sherbrooke / Saint-Mathieu -->
        <stop busStop="-6010981492" duration="20" until="160.0"/> <!-- Sherbrooke / Saint-Marc -->
        <stop busStop="-6010981038" duration="20" until="244.0"/> <!-- Sherbrooke / Chomedey -->
        <stop busStop="6010968874" duration="20" until="322.0"/> <!-- Sherbrooke / Atwater -->
        <stop busStop="-6010980155" duration="20" until="370.0"/> <!-- Collège Dawson (Sherbrooke/No 3040) -->
    </route>
    <route id="pt_bus_150-E:0" edges="394910074#0 329694553#1 329694553#2 936656919 37852832#0 37852832#1 37852832#2 37852832#3 329989224#0 329989224#1 329989224#2 453964887#0 453964892#1 455083968#1 455083976#0 41258973#1 41258973#2 455083980#0 455083970#1" >
        <stop busStop="6010973662@8873279" duration="20" until="40.0"/> <!-- Station Atwater (Ste-Catherine / Lambert-Closse) -->
        <stop busStop="6010973748" duration="20" until="151.0"/> <!-- René-Lévesque / du Fort -->
        <stop busStop="6010972047" duration="20" until="232.0"/> <!-- René-Lévesque / Saint-Mathieu -->
        <stop busStop="6010971108" duration="20" until="288.0"/> <!-- René-Lévesque / Guy -->
        <stop busStop="6010975333" duration="20" until="364.0"/> <!-- René-Lévesque / Bishop -->
    </route>
    <route id="pt_bus_104-O:0" edges="329694558 329694559#0 329694559#1 329694559#2 329694559#3 231387459 453949528 474841418#0 474841418#1 165217771#2 918602130 561490747 561490746#0 561490746#1 -329067231#5" >
        <stop busStop="2519449677" duration="20" until="36.0"/> <!-- Station Atwater (Tupper / Atwater) -->
        <stop busStop="6010974370" duration="20" until="98.0"/> <!-- Atwater / Lincoln -->
        <stop busStop="-6010980155" duration="20" until="165.0"/> <!-- Collège Dawson (Sherbrooke/No 3040) -->
    </route>
    <route id="pt_bus_104-E:0" edges="561490751#0 561490751#2 453745797#0 453745797#1 474841415#0 474841415#1 453949527 165217770#0 165217839#0 165217839#2" >
        <stop busStop="6010981247" duration="20" until="31.0"/> <!-- Sherbrooke / Atwater -->
        <stop busStop="6010968565" duration="20" until="89.0"/> <!-- Atwater / De Maisonneuve -->
        <stop busStop="2519449678" duration="20" until="176.0"/> <!-- Saint-Catherine/Awater -->
    </route>
    <route id="pt_bus_138-E:0" edges="561490751#0 561490751#2 453745797#0 453745797#1 474841415#0 474841415#1 453949527 165217770#0 165217839#0 165217839#2" >
        <stop busStop="6010981247" duration="20" until="31.0"/> <!-- Sherbrooke / Atwater -->
        <stop busStop="6010968565" duration="20" until="89.0"/> <!-- Atwater / De Maisonneuve -->
        <stop busStop="2519449678" duration="20" until="179.0"/> <!-- Saint-Catherine/Awater -->
    </route>
    <route id="pt_bus_138-O:0" edges="329694558 329694559#0 329694559#1 329694559#2 329694559#3 231387459 453949528 474841418#0 474841418#1 165217771#2 918602130 561490747 561490746#0 561490746#1 -329067231#5" >
        <stop busStop="2519449677" duration="20" until="35.0"/> <!-- Station Atwater (Tupper / Atwater) -->
        <stop busStop="6010974370" duration="20" until="114.0"/> <!-- Atwater / Lincoln -->
        <stop busStop="-6010980155" duration="20" until="179.0"/> <!-- Collège Dawson (Sherbrooke/No 3040) -->
    </route>
    <route id="pt_bus_90-E:0" edges="165217874 92352265 92352264 92352263#0 92352263#1 92352263#2" >
        <stop busStop="6010969833" duration="20" until="42.0"/> <!-- Sainte-Catherine / Dorchester -->
        <stop busStop="6010970824" duration="20" until="96.0"/> <!-- Sainte-Catherine / Greene -->
        <stop busStop="6010965782" duration="20" until="156.0"/> <!-- Sainte-Catherine / Gladstone -->
        <stop busStop="6010967477" duration="20" until="244.0"/> <!-- Sainte-Catherine / Atwater -->
    </route>
    <route id="pt_bus_166-N:0" edges="-41258974#1 -41258974#0 -143920958#3 -143920958#2 -143920958#1 -143920958#0 4872827 453745825#0 453745825#1 165217806 727849147#0" >
        <stop busStop="-6010971144" duration="20" until="42.0"/> <!-- Côte-des-Neiges / Sherbrooke -->
        <stop busStop="-1457825329" duration="20" until="88.0"/> <!-- Côte-des-Neiges / Summerhill -->
        <stop busStop="1457813196" duration="20" until="151.0"/> <!-- Côte-des-Neiges / du Docteur-Penfield -->
        <stop busStop="6010966218" duration="20" until="204.0"/> <!-- Hôpital général (des Pins/Côte-des-Neiges) -->
    </route>
    <route id="pt_bus_15-O:0" edges="329384217#8 329384217#9 330153470#0 330153470#1 330150736#0 330150736#1 330150435#0 330150435#1 330150435#4 330150435#5 330150435#6 330150435#7 330150435#8 330150435#9 1042466503#0 1042466503#1 1042466503#2 329694553#1 329694553#2 -329694557 329694558 329694559#0 329694559#1 329694559#2 329694559#3 165217839#0 165217839#2" >
        <stop busStop="6010973621" duration="20" until="43.0"/> <!-- Station Guy-Concordia (De Maisonneuve / Guy) -->
        <stop busStop="6010969519" duration="20" until="146.0"/> <!-- Station Guy-Concordia (De Maisonneuve/St-Mathieu) -->
        <stop busStop="6010981014" duration="20" until="212.0"/> <!-- De Maisonneuve / du Fort -->
        <stop busStop="6010970071" duration="20" until="272.0"/> <!-- De Maisonneuve / Chomedey -->
        <stop busStop="6010965893" duration="20" until="360.0"/> <!-- Lambert-Closse / Sainte-Catherine -->
        <stop busStop="6010966061@9320162" duration="20" until="477.0"/> <!-- Station Atwater (Sainte-Catherine / Atwater) -->
    </route>
    <route id="pt_bus_108-O:0" edges="-329694557 575547253#0 200638835#0 200638835#2 200638835#3 463671314#0 463671314#1" >
        <stop busStop="-6010981242" duration="20" until="42.0"/> <!-- Station Atwater (Tupper / Atwater) -->
        <stop busStop="6010981721" duration="20" until="114.0"/> <!-- Atwater / Dorchester -->
        <stop busStop="6010970060" duration="20" until="197.0"/> <!-- Atwater / Saint-Antoine -->
        <stop busStop="6010970078" duration="20" until="258.0"/> <!-- Atwater / Saint-Jacques -->
    </route>
    <route id="pt_bus_108-E:0" edges="509777703#0 463671313#1 463671313#2 463671313#3 231387458#0 231387458#1 231387458#2 231387458#3 231387460#0 329694558 329694559#0 329694559#1 329694559#2 329694559#3" >
        <stop busStop="6010965695" duration="20" until="45.0"/> <!-- Atwater / Saint-Jacques -->
        <stop busStop="913940068" duration="20" until="152.0"/> <!-- Atwater / Saint-Antoine -->
        <stop busStop="443938658" duration="20" until="210.0"/> <!-- Atwater / du Souvenir -->
        <stop busStop="6010968869" duration="20" until="267.0"/> <!-- Station Atwater (Atwater / Sainte-Catherine) -->
    </route>
    <route id="pt_bus_90-O:0" edges="-329694557 329694558 329694559#0 329694559#1 329694559#2 329694559#3 -92352263#3 -92352263#1 -92352263#0 -92352264" >
        <stop busStop="-6010975601" duration="20" until="45.0"/> <!-- Station Atwater (Tupper / Atwater) -->
        <stop busStop="-6010980150" duration="20" until="157.0"/> <!-- Place Alexis-Nihon (Ste-Catherine/No 4026) -->
        <stop busStop="-6010973708" duration="20" until="224.0"/> <!-- Sainte-Catherine / Wood -->
        <stop busStop="-6010972616" duration="20" until="291.0"/> <!-- Sainte-Catherine / Greene -->
    </route>
    <route id="pt_bus_150-O:0" edges="455083984#2 455083979#1 455083981#1 330153472#1 330153472#2 465653665#1 463825906#1 463825907#1 463825907#2 337432401#0 337432401#1 337432401#3 337432401#4 337432401#5 337432401#6 231387460#0 329694558 329694559#0 329694559#1 329694559#2 329694559#3 165217839#0 165217839#2" >
        <stop busStop="4030794085" duration="20" until="77.0"/> <!-- René-Lévesque / Bishop -->
        <stop busStop="6010968827" duration="20" until="156.0"/> <!-- René-Lévesque / Guy -->
        <stop busStop="6010969566" duration="20" until="211.0"/> <!-- René-Lévesque / Saint-Mathieu -->
        <stop busStop="445067518" duration="20" until="291.0"/> <!-- René-Lévesque / Seymour -->
        <stop busStop="6010968427" duration="20" until="340.0"/> <!-- René-Lévesque / du Sussex -->
        <stop busStop="6010978235" duration="20" until="402.0"/> <!-- René-Lévesque / Atwater -->
        <stop busStop="6010968869" duration="20" until="482.0"/> <!-- Station Atwater (Atwater / Sainte-Catherine) -->
        <stop busStop="6010973662" duration="20" until="543.0"/> <!-- Station Atwater (Ste-Catherine / Lambert-Closse) -->
    </route>
    <route id="pt_bus_107-N:0" edges="1042470293#0 1042470293#1 1042470293#2 1042470291 263213892 561511406 37722304 41651789#0 41651789#1 129587033 914737889#1 914737889#2 455718964#0 455712869#1 455712867#1 456353760#1 37722302#1" >
        <stop busStop="2091616663" duration="20" until="41.0"/> <!-- du Centre / de la Sucrerie -->
        <stop busStop="2687686469" duration="20" until="104.0"/> <!-- du Centre / Wellington -->
        <stop busStop="2687686489" duration="20" until="176.0"/> <!-- Wellington / Bridge -->
        <stop busStop="5754358290" duration="20" until="278.0"/> <!-- Wellington / Young -->
        <stop busStop="5754358294" duration="20" until="357.0"/> <!-- Peel / Wellington -->
        <stop busStop="427618244" duration="20" until="438.0"/> <!-- Peel / Ottawa -->
        <stop busStop="427618243" duration="20" until="564.0"/> <!-- Peel / Notre-Dame -->
        <stop busStop="427618242" duration="20" until="638.0"/> <!-- Peel / Saint-Jacques -->
    </route>
    <route id="pt_bus_107-S:0" edges="-354710422#0 -37722302#1 -456353760#1 -455712867#1 -455712869#1 -455718964#0 492899793#0 492899793#1 129587031 -352905266 -41651789#0 -37722304 561511409 -263213892 -1042470291 -1042470293#2 -1042470293#1 -1042470293#0" >
        <stop busStop="-6010969844" duration="20" until="40.0"/> <!-- Peel / Saint-Jacques -->
        <stop busStop="-427618245" duration="20" until="103.0"/> <!-- École de technologie supérieure (Peel/Notre-Dame) -->
        <stop busStop="-5754358296" duration="20" until="209.0"/> <!-- Peel / Ottawa -->
        <stop busStop="-5754358295" duration="20" until="296.0"/> <!-- Peel / Wellington -->
        <stop busStop="5754358289" duration="20" until="391.0"/> <!-- Wellington / Murray -->
        <stop busStop="-2687686486" duration="20" until="501.0"/> <!-- Wellington / Bridge -->
        <stop busStop="-2701338580" duration="20" until="578.0"/> <!-- du Centre / De Condé -->
        <stop busStop="-2091616661" duration="20" until="644.0"/> <!-- du Centre / de la Sucrerie -->
    </route>
    <route id="pt_bus_66-N:0" edges="1051530916#0 41258973#1 41258973#2 -455083994#2 -455083993#3 -455083993#2 -455083993#0 -165217827#4 -165217827#3 -165217827#2 -165217827#1 -41258974#2 -41258974#1 -41258974#0 -143920958#3 -143920958#2 -143920958#1 -143920958#0 4872827 453745825#0 453745825#1 165217806 727849147#0" >
        <stop busStop="6010977887@9320535" duration="20" until="31.0"/> <!-- Saint-Mathieu / René-Lévesque -->
        <stop busStop="-6010965967" duration="20" until="108.0"/> <!-- Guy / René-Lévesque -->
        <stop busStop="-4034535844" duration="20" until="182.0"/> <!-- Station Guy-Concordia (Guy / De Maisonneuve) -->
        <stop busStop="-6010971144" duration="20" until="360.0"/> <!-- Côte-des-Neiges / Sherbrooke -->
        <stop busStop="-1457825329" duration="20" until="407.0"/> <!-- Côte-des-Neiges / Summerhill -->
        <stop busStop="1457813196" duration="20" until="477.0"/> <!-- Côte-des-Neiges / du Docteur-Penfield -->
        <stop busStop="6010966218" duration="20" until="546.0"/> <!-- Hôpital général (des Pins/Côte-des-Neiges) -->
    </route>
    <route id="pt_bus_66-S:0" edges="48678910#0 48678910#1 143920958#0 143920958#1 143920958#2 143920958#3 165217834#0 165217834#1 165217834#4 165217834#7 165217834#8 165217834#9 330150434#0 330150434#1 330150434#2 330150434#5 330150434#6 330150434#7 330150434#8 1051530916#0 41258973#1 41258973#2 -455083994#2 -455083993#3 -455083993#2" >
        <stop busStop="1465572617@9320534" duration="20" until="37.0"/> <!-- du Docteur-Penfield / Côte-des-Neiges -->
        <stop busStop="6010975324" duration="20" until="107.0"/> <!-- Côte-des-Neiges / Summerhill -->
        <stop busStop="6010970338" duration="20" until="173.0"/> <!-- Saint-Mathieu / Sherbrooke -->
        <stop busStop="504318024" duration="20" until="236.0"/> <!-- Station Guy-Concordia (St-Mathieu/De Maisonneuve) -->
        <stop busStop="6010977969" duration="20" until="302.0"/> <!-- Saint-Mathieu / Sainte-Catherine -->
        <stop busStop="6010974344" duration="20" until="366.0"/> <!-- Saint-Mathieu / Baile -->
        <stop busStop="6010977887" duration="20" until="410.0"/> <!-- Saint-Mathieu / René-Lévesque -->
        <stop busStop="-6010965967" duration="20" until="507.0"/> <!-- Guy / René-Lévesque -->
        <stop busStop="-4034535844" duration="20" until="574.0"/> <!-- Station Guy-Concordia (Guy / De Maisonneuve) -->
    </route>
    <route id="pt_bus_74-N:0" edges="37722304 41651789#0 41651789#1 129587033 914737889#1 914737889#2 455718964#0 455712869#1 455712867#1 456353760#1 37722302#1" >
        <stop busStop="2687686489" duration="20" until="71.0"/> <!-- Wellington / Bridge -->
        <stop busStop="5754358290" duration="20" until="220.0"/> <!-- Wellington / Young -->
        <stop busStop="5754358294" duration="20" until="272.0"/> <!-- Peel / Wellington -->
        <stop busStop="427618244" duration="20" until="366.0"/> <!-- Peel / Ottawa -->
        <stop busStop="427618243" duration="20" until="432.0"/> <!-- Peel / Notre-Dame -->
        <stop busStop="427618242" duration="20" until="538.0"/> <!-- Peel / Saint-Jacques -->
    </route>
    <route id="pt_bus_36-O:0" edges="975251637#1 975251637#2 111771067#1 111771067#2 111771067#3 111771067#4 111771067#5 329988460#1 329988460#3 329988460#4 165217829#0 165217829#1 165217829#4 165217829#5 165217829#6 165217829#9 165217829#10 165217829#11 545490137#1" >
        <stop busStop="6010969810" duration="20" until="43.0"/> <!-- Saint-Antoine / Lusignan -->
        <stop busStop="6010965221" duration="20" until="114.0"/> <!-- Guy / Saint-Jacques -->
        <stop busStop="2264682032" duration="20" until="182.0"/> <!-- Guy / Paxton -->
        <stop busStop="2687914658" duration="20" until="274.0"/> <!-- Notre-Dame / des Seigneurs -->
        <stop busStop="2687914654" duration="20" until="351.0"/> <!-- Notre-Dame / Georges-Vanier -->
        <stop busStop="2687914649" duration="20" until="406.0"/> <!-- Notre-Dame / Dominion -->
    </route>
    <route id="pt_bus_165-S:0" edges="453745802 143920958#2 143920958#3 165217834#0 165217834#1 165217834#4 165217834#7 165217834#8 165217834#9 330150434#0 330150434#1 330150434#2 330150434#5 330150434#6 330150434#7 330150434#8 1051530916#0 41258973#1 41258973#2 -455083994#2 -455083993#3 -455083993#2" >
        <stop busStop="1465572617" duration="20" until="34.0"/> <!-- du Docteur-Penfield / Côte-des-Neiges -->
        <stop busStop="6010975324" duration="20" until="373.0"/> <!-- Côte-des-Neiges / Summerhill -->
        <stop busStop="6010970338" duration="20" until="439.0"/> <!-- Saint-Mathieu / Sherbrooke -->
        <stop busStop="504318024" duration="20" until="516.0"/> <!-- Station Guy-Concordia (St-Mathieu/De Maisonneuve) -->
        <stop busStop="6010977969" duration="20" until="568.0"/> <!-- Saint-Mathieu / Sainte-Catherine -->
        <stop busStop="6010977887" duration="20" until="641.0"/> <!-- Saint-Mathieu / René-Lévesque -->
        <stop busStop="-6010965967" duration="20" until="710.0"/> <!-- Guy / René-Lévesque -->
        <stop busStop="-504318025@8873299" duration="20" until="798.0"/> <!-- Station Guy-Concordia (Guy / De Maisonneuve) -->
    </route>
    <route id="pt_bus_61-E:0" edges="122076249 263213892 561511406 37722304 41651789#0 41651789#1 129587033 914737889#1 914737889#2 455718964#0 37722301#2 37722301#3 361815166#0 352392846#1 360802894#1" >
        <stop busStop="2687686460" duration="20" until="44.0"/> <!-- Wellington / du Centre -->
        <stop busStop="2687686489" duration="20" until="158.0"/> <!-- Wellington / Bridge -->
        <stop busStop="5754358290" duration="20" until="298.0"/> <!-- Wellington / Young -->
        <stop busStop="5754358291" duration="20" until="390.0"/> <!-- Wellington / Ann -->
        <stop busStop="6274677573" duration="20" until="770.0"/> <!-- Wellington / Prince -->
    </route>
    <route id="pt_bus_36-E:0" edges="-545490137#1 -165217829#11 -165217829#10 -165217829#9 -165217829#6 -165217829#5 -165217829#4 -165217829#1 -165217829#0 -329988460#4 -329988460#3 -329988460#1 329988459#1 329988459#2 329988459#3 329988459#4 329988459#7 329988459#8 329988459#9 133806980#1 133806980#3 133806980#4 133806980#5" >
        <stop busStop="-2687914648" duration="20" until="40.0"/> <!-- Notre-Dame / Dominion -->
        <stop busStop="-2687914652" duration="20" until="86.0"/> <!-- Notre-Dame / Georges-Vanier -->
        <stop busStop="-6274677571" duration="20" until="173.0"/> <!-- Notre-Dame / des Seigneurs -->
        <stop busStop="-2264682033" duration="20" until="256.0"/> <!-- Guy / Paxton -->
        <stop busStop="-6010970163" duration="20" until="315.0"/> <!-- Guy / Saint-Jacques -->
        <stop busStop="6010975602" duration="20" until="396.0"/> <!-- Saint-Jacques / Lucien-L'Allier -->
        <stop busStop="6010978137" duration="20" until="498.0"/> <!-- Saint-Jacques / de la Montagne -->
        <stop busStop="6010975695" duration="20" until="552.0"/> <!-- Saint-Jacques / Peel -->
    </route>
    <route id="pt_bus_166-S:0" edges="453745802 143920958#2 143920958#3 165217834#0 165217834#1 165217834#4 165217834#7 165217834#8 165217834#9 330150434#0 330150434#1 330150434#2 330150434#5 330150434#6 330150434#7 330150434#8 1051530916#0 41258973#1 41258973#2 -455083994#2" >
        <stop busStop="1465572617" duration="20" until="34.0"/> <!-- du Docteur-Penfield / Côte-des-Neiges -->
        <stop busStop="6010975324" duration="20" until="371.0"/> <!-- Côte-des-Neiges / Summerhill -->
        <stop busStop="6010970338" duration="20" until="440.0"/> <!-- Saint-Mathieu / Sherbrooke -->
        <stop busStop="504318024" duration="20" until="503.0"/> <!-- Station Guy-Concordia (St-Mathieu/De Maisonneuve) -->
        <stop busStop="6010977969" duration="20" until="553.0"/> <!-- Saint-Mathieu / Sainte-Catherine -->
        <stop busStop="6010974344" duration="20" until="611.0"/> <!-- Saint-Mathieu / Baile -->
        <stop busStop="6010977887" duration="20" until="657.0"/> <!-- Saint-Mathieu / René-Lévesque -->
        <stop busStop="-6010965967" duration="20" until="730.0"/> <!-- Guy / René-Lévesque -->
        <stop busStop="-6010981282" duration="20" until="761.0"/> <!-- Guy / Sainte-Catherine -->
    </route>
    <route id="pt_bus_35-O:0" edges="-360802894#1 -352392846#1 -361815166#0 -37722301#3 -37722301#2 -455718964#0 492899793#0 492899793#1 -455713130#2 -455713130#1 -455722372#1 -455722372#0 -455722367#1 -455722369#0 -573448691#2 -573448691#1 -573448691#0 -573448690#1 1041940066#1 1041940066#3 1041940066#4 1041940066#5 1041940066#6 1041940066#7 1041940066#8 165217829#0 165217829#1 165217829#4 165217829#5 165217829#6 165217829#9 165217829#10 165217829#11 545490137#1" >
        <stop busStop="-6010981007" duration="20" until="46.0"/> <!-- Wellington / Robert-Bourassa -->
        <stop busStop="-5754358293" duration="20" until="137.0"/> <!-- Wellington / Ann -->
        <stop busStop="-5754358292" duration="20" until="188.0"/> <!-- Wellington / Peel -->
        <stop busStop="5754358289" duration="20" until="249.0"/> <!-- Wellington / Murray -->
        <stop busStop="-6010969842" duration="20" until="312.0"/> <!-- de la Montagne / Wellington -->
        <stop busStop="-6010968651" duration="20" until="364.0"/> <!-- de la Montagne / Ottawa -->
        <stop busStop="-6010981124" duration="20" until="425.0"/> <!-- de la Montagne / William -->
        <stop busStop="-6010970833" duration="20" until="477.0"/> <!-- de la Montagne / Barré -->
        <stop busStop="6010965891" duration="20" until="539.0"/> <!-- Notre-Dame / de Versailles -->
        <stop busStop="6010964698" duration="20" until="602.0"/> <!-- Notre-Dame / Guy -->
        <stop busStop="2687914658" duration="20" until="722.0"/> <!-- Notre-Dame / des Seigneurs -->
        <stop busStop="2687914654" duration="20" until="798.0"/> <!-- Notre-Dame / Georges-Vanier -->
        <stop busStop="2687914649" duration="20" until="854.0"/> <!-- Notre-Dame / Dominion -->
    </route>
    <route id="pt_bus_57-E:0" edges="330150435#0 330150435#1 330150435#4 330150435#5 330150435#6 330150435#7 330150435#8 330150435#9 1042466503#0 1042466503#1 1042466503#2 329694554#0 329694554#1 329694554#2 329694554#3 329694554#4 329694554#5 329694554#7 329694554#10 329694554#11 455083994#1 41258976#1 41258976#3 41258976#4 111771070 465656094#0 465656094#1 111771067#1 -347724804 347724804 -111771067#1 -465656094#1 25367003#0 25367003#1 103896396#8 103974914#1 673699710#4 975251637#0 975251637#1 975251637#2 111771067#1 111771067#2 111771067#3 111771067#4 111771067#5 329988460#1 329988460#3 329988460#4 111771071#1 111771071#2 111771071#3 -1042467341#7 -1042467341#4 -1042467341#1 1042467342#1 1042467342#4 816197807 52135931#2 52135931#3 463595256 20113489#0 20113489#1" >
        <stop busStop="6010974358" duration="20" until="31.0"/> <!-- Station Guy-Concordia (Maisonneuve / St-Mathieu) -->
        <stop busStop="6010981014" duration="20" until="103.0"/> <!-- De Maisonneuve / du Fort -->
        <stop busStop="6010970071" duration="20" until="164.0"/> <!-- De Maisonneuve / Chomedey -->
        <stop busStop="2519454983" duration="20" until="255.0"/> <!-- Station Atwater (Lambert-Closse / Ste-Catherine) -->
        <stop busStop="6010977514" duration="20" until="318.0"/> <!-- Sainte-Catherine / du Fort -->
        <stop busStop="6010968682" duration="20" until="392.0"/> <!-- Sainte-Catherine / Saint-Mathieu -->
        <stop busStop="6010966051" duration="20" until="465.0"/> <!-- Guy / Sainte-Catherine -->
        <stop busStop="6010981200" duration="20" until="517.0"/> <!-- Guy / René-Lévesque -->
        <stop busStop="-6010965405" duration="20" until="671.0"/> <!-- Guy / Saint-Antoine -->
        <stop busStop="6010965221" duration="20" until="793.0"/> <!-- Guy / Saint-Jacques -->
        <stop busStop="2264682032" duration="20" until="885.0"/> <!-- Guy / Paxton -->
        <stop busStop="6010971347" duration="20" until="946.0"/> <!-- Guy / William -->
        <stop busStop="-6010968609" duration="20" until="1024.0"/> <!-- William / des Seigneurs -->
        <stop busStop="6274677575" duration="20" until="1123.0"/> <!-- des Seigneurs / du Canal -->
        <stop busStop="6010975289" duration="20" until="1192.0"/> <!-- Saint-Patrick / Shearer -->
        <stop busStop="2091616655" duration="20" until="1250.0"/> <!-- Shearer / Richardson -->
    </route>