<?xml version="1.0" encoding="UTF-8"?>

<!-- generated on 2022-09-14 21:18:44 by Eclipse SUMO polyconvert Version 1.14.1
<configuration xmlns:xsi="http://www.w3.org/2001/XMLSchema-instance" xsi:noNamespaceSchemaLocation="http://sumo.dlr.de/xsd/polyconvertConfiguration.xsd">

    <input>
        <net-file value="osm.net.xml"/>
        <osm-files value="osm_bbox.osm.xml"/>
    </input>

    <output>
        <output-file value="osm_polygons.add.xml"/>
    </output>

</configuration>
-->

<additional xmlns:xsi="http://www.w3.org/2001/XMLSchema-instance" xsi:noNamespaceSchemaLocation="http://sumo.dlr.de/xsd/additional_file.xsd">
    <location netOffset="-609199.05,-5033470.91" convBoundary="-5926.10,-1253.39,5113.30,19722.89" origBoundary="-73.679634,45.435850,-73.534980,45.623965" projParameter="+proj=utm +zone=18 +ellps=WGS84 +datum=WGS84 +units=m +no_defs"/>

    <poly id="1026106359" type="building" color="255,230,230" fill="1" layer="-1.00" shape="1476.536075,5041.873398 1478.606439,5040.154036 1464.265365,5022.320257 1462.186207,5024.095034 1476.536075,5041.873398"/>
    <poly id="1027470451" type="building" color="255,230,230" fill="1" layer="-1.00" shape="1661.394380,4871.738008 1667.935056,4867.852814 1663.527628,4861.596084 1662.327921,4862.252794 1661.699529,4861.541570 1657.129043,4864.516952 1661.394380,4871.738008"/>
    <poly id="103248048" type="building" color="255,230,230" fill="1" layer="-1.00" shape="1944.629818,5604.145346 1946.531282,5603.134388 1948.166640,5605.674921 1952.820866,5603.245787 1947.679333,5594.797646 1942.021247,5585.506876 1936.018902,5589.034570 1935.458265,5589.358035 1944.629818,5604.145346"/>
    <poly id="103248049" type="building" color="255,230,230" fill="1" layer="-1.00" shape="1875.993351,5472.550904 1869.322840,5464.809241 1880.793640,5456.132875 1882.229313,5458.036404 1885.407241,5456.003387 1883.352204,5453.766613 1895.252240,5444.686684 1900.424603,5451.846197 1903.438100,5456.011402 1903.208652,5457.051974 1881.962155,5469.155915 1876.648541,5472.184654 1875.993351,5472.550904"/>
    <poly id="103248050" type="building" color="255,230,230" fill="1" layer="-1.00" shape="1827.649154,5319.901311 1854.443294,5298.638107 1924.255912,5387.345233 1927.741520,5391.774411 1932.203422,5388.297218 1936.706254,5388.688122 1940.262707,5393.529748 1906.856418,5419.209676 1904.256710,5415.951959 1897.444061,5407.407606 1892.191305,5400.813444 1877.059514,5381.842221 1827.649154,5319.901311"/>
    <poly id="103248051" type="building" color="255,230,230" fill="1" layer="-1.00" shape="1960.985768,5662.945696 1963.959104,5660.986889 1966.853131,5659.093356 1965.977456,5657.788720 1950.993092,5635.397048 1948.865925,5637.237491 1951.460952,5642.517740 1948.743927,5644.125473 1960.985768,5662.945696"/>
    <poly id="103248052" type="building" color="255,230,230" fill="1" layer="-1.00" shape="1869.263741,5598.421316 1856.791862,5580.652964 1860.389863,5578.727388 1862.727899,5582.636134 1863.784105,5582.132509 1866.544049,5586.048723 1867.820452,5585.026679 1874.050776,5594.227489 1876.065352,5593.007362 1880.877020,5600.227159 1881.988636,5601.891578 1874.467341,5606.459303 1873.960575,5605.505717 1869.263741,5598.421316"/>
    <poly id="103248053" type="university" color="237,199,199" fill="1" layer="-2.00" shape="2132.298660,5328.754336 2022.518611,5159.232988 1773.149943,5352.976900 1805.767571,5394.850087 1834.816605,5370.692830 1848.336956,5358.829858 1909.036565,5435.128932 1871.774027,5461.885418 1863.596499,5467.752895 1845.526640,5446.540462 1783.948800,5490.581576 1812.201083,5529.110377 1775.271295,5554.784206 1707.627430,5586.594343 1710.769248,5591.461849 1746.394471,5646.623657 1718.651826,5664.169835 1719.155861,5665.278943 1739.200039,5696.372155 1745.133687,5706.001002 1736.579251,5711.550800 1765.880032,5753.943108 1762.220397,5756.267717 1784.778502,5790.572791 1886.980719,5726.513681 1895.023496,5721.177288 1966.057240,5671.814910 1939.682161,5632.851847 1951.360794,5625.668455 1954.814878,5623.484782 1944.347636,5608.163302 1930.259363,5586.354328 1878.631360,5618.035094 1854.536373,5577.379130 1904.154071,5545.362515 1928.767890,5582.749488 1979.311567,5549.660765 1921.740333,5461.880893 1917.787898,5456.009858 1999.087506,5411.908237 2011.542891,5404.583122 2020.720500,5399.189193 2062.454402,5374.657662 2071.734659,5369.210058 2132.298660,5328.754336"/>
    <poly id="103248054" type="amenity" color="237,199,199" fill="1" layer="-1.00" shape="1967.286355,5638.608410 1972.295754,5639.952936 1973.694020,5643.522797 1978.766201,5641.323350 1984.053225,5650.818733 1992.517832,5645.945572 1990.279502,5642.149672 1992.613894,5640.524063 1993.838536,5642.423883 2001.045585,5637.950749 1997.379474,5632.251427 2002.007174,5629.555144 2007.116794,5626.567350 2005.496563,5623.615884 2012.696160,5619.564930 2002.281637,5603.922002 1994.852571,5609.013537 1993.409684,5607.521037 1995.744089,5605.895429 1994.017885,5603.631103 1991.856172,5600.803403 1986.124910,5604.469210 1989.177353,5609.957616 1990.446489,5609.346654 1991.459986,5611.253844 1985.943625,5614.701196 1983.298662,5610.475796 1976.953582,5613.497287 1975.111357,5611.164231 1978.918366,5609.353557 1976.258104,5605.550188 1977.530979,5604.728140 1976.302191,5603.061627 1974.256683,5600.291558 1972.343858,5601.502342 1969.680381,5598.321255 1949.964406,5610.518748 1962.809853,5631.005520 1965.140503,5629.590985 1966.365155,5631.490798 1965.258961,5634.816256 1967.286355,5638.608410"/>
    <poly id="103248055" type="building" color="255,230,230" fill="1" layer="-1.00" shape="1780.760042,5357.101076 1804.821806,5336.522820 1807.733388,5337.618951 1809.705584,5338.798486 1812.395543,5340.935333 1813.518183,5342.422123 1835.888126,5369.767172 1808.121755,5392.991383 1780.760042,5357.101076"/>
    <poly id="103248056" type="building" color="255,230,230" fill="1" layer="-1.00" shape="1876.065352,5593.007362 1864.030335,5574.402130 1880.989207,5563.422464 1884.909366,5569.348472 1897.834139,5588.903000 1880.877020,5600.227159 1876.065352,5593.007362"/>
    <poly id="103248058" type="building" color="255,230,230" fill="1" layer="-1.00" shape="1906.460242,5419.513830 1922.910370,5439.942068 1926.081164,5443.609980 1931.727624,5439.442523 1932.642855,5440.281101 1938.747527,5434.954885 1939.363883,5435.899303 1945.531409,5430.996506 1946.247370,5432.053820 1952.092787,5427.245343 1952.703435,5428.511942 1958.547089,5423.803457 1959.157737,5425.070056 1964.788805,5420.891242 1965.498919,5421.837323 1971.996078,5416.418073 1948.400409,5387.272701 1940.262707,5393.529748 1906.856418,5419.209676 1906.460242,5419.513830"/>
    <poly id="103248059" type="building" color="255,230,230" fill="1" layer="-1.00" shape="1950.993092,5635.397048 1946.988135,5628.969401 1953.018750,5625.608916 1963.566177,5641.254114 1964.852446,5640.999071 1973.774599,5654.415097 1972.650774,5655.206447 1974.078892,5657.532166 1971.971938,5658.672832 1970.149010,5659.662947 1967.629283,5656.751121 1965.977456,5657.788720 1950.993092,5635.397048"/>
    <poly id="103248061" type="building" color="255,230,230" fill="1" layer="-1.00" shape="1927.615865,5381.214715 1938.098975,5374.921393 1920.030628,5347.440974 1914.836206,5350.794076 1888.679718,5318.369693 1880.294321,5324.489075 1906.950133,5358.289177 1910.561256,5355.630392 1927.615865,5381.214715"/>
    <poly id="103248062" type="building" color="255,230,230" fill="1" layer="-1.00" shape="1897.834139,5588.903000 1921.473410,5574.063210 1908.085729,5554.611567 1884.909366,5569.348472 1897.834139,5588.903000"/>
    <poly id="103248063" type="building" color="255,230,230" fill="1" layer="-1.00" shape="1966.520475,5586.985448 1956.920088,5573.023994 1957.631540,5572.569844 1974.941395,5561.641095 1975.406192,5562.316117 1978.148286,5566.354310 1980.844481,5570.336126 1984.134946,5575.184183 1966.520475,5586.985448"/>
    <poly id="103248064" type="building" color="255,230,230" fill="1" layer="-1.00" shape="1870.621677,5556.582199 1879.109610,5551.275885 1880.643096,5553.392296 1905.042662,5537.110079 1928.408340,5573.041358 1946.625431,5560.750569 1966.598578,5547.279606 1941.993062,5511.192867 1929.622032,5519.508674 1924.928337,5512.246478 1927.693668,5510.561796 1927.199294,5508.908299 1936.142589,5502.609940 1919.619116,5478.390783 1916.846281,5474.318734 1906.094358,5480.796250 1904.553850,5481.724706 1903.626928,5480.663662 1876.063997,5498.145684 1851.457484,5514.635503 1853.592407,5518.540649 1850.749952,5520.168432 1847.515999,5522.278266 1870.621677,5556.582199"/>
    <poly id="103248065" type="building" color="255,230,230" fill="1" layer="-1.00" shape="1942.021247,5585.506876 1948.603069,5581.033722 1954.922063,5590.958540 1947.679333,5594.797646 1942.021247,5585.506876"/>
    <poly id="103248570" type="clinic" color="237,199,199" fill="1" layer="-2.00" shape="1668.891970,5418.112986 1676.980946,5411.499118 1689.154097,5401.545696 1690.367872,5395.221555 1686.151804,5390.101708 1680.365617,5382.720389 1677.563060,5378.992436 1652.679161,5399.245472 1668.891970,5418.112986"/>
    <poly id="103248570#1" type="building" color="255,230,230" fill="1" layer="-1.00" shape="1668.891970,5418.112986 1676.980946,5411.499118 1689.154097,5401.545696 1690.367872,5395.221555 1686.151804,5390.101708 1680.365617,5382.720389 1677.563060,5378.992436 1652.679161,5399.245472 1668.891970,5418.112986"/>
    <poly id="103248571" type="commercial" color="209,209,204" fill="1" layer="-3.00" shape="1853.260511,5630.043887 1878.986375,5613.873955 1873.960575,5605.505717 1869.263741,5598.421316 1854.536373,5577.379130 1838.432220,5587.762766 1839.870671,5592.600202 1850.660686,5623.263325 1853.260511,5630.043887"/>
    <poly id="103248572" type="amenity" color="237,199,199" fill="1" layer="-1.00" shape="1878.986375,5613.873955 1926.922267,5582.372299 1904.154071,5545.362515 1854.536373,5577.379130 1869.263741,5598.421316 1873.960575,5605.505717 1878.986375,5613.873955"/>
    <poly id="103248572#1" type="shop" color="237,199,255" fill="1" layer="-1.00" shape="1878.986375,5613.873955 1926.922267,5582.372299 1904.154071,5545.362515 1854.536373,5577.379130 1869.263741,5598.421316 1873.960575,5605.505717 1878.986375,5613.873955"/>
    <poly id="103248591" type="building" color="255,230,230" fill="1" layer="-1.00" shape="1777.407882,5582.904847 1788.641994,5576.102255 1788.978492,5574.752405 1778.172866,5557.324856 1773.553843,5557.765491 1757.484791,5565.727293 1759.471979,5568.707405 1769.331725,5583.495499 1775.279828,5580.377876 1777.407882,5582.904847"/>
    <poly id="103521738" type="building" color="255,230,230" fill="1" layer="-1.00" shape="2000.745233,5661.516390 2027.584497,5642.955236 2041.150526,5662.454769 2024.914097,5673.680186 2022.543897,5670.270896 2011.941097,5677.606579 2000.745233,5661.516390"/>
    <poly id="103521742" type="building" color="255,230,230" fill="1" layer="-1.00" shape="2031.537829,5595.850035 2018.249356,5577.877950 2045.074180,5559.272150 2048.809082,5556.682318 2062.090493,5575.932355 2061.243255,5576.550783 2051.701663,5582.649435 2044.709409,5586.904058 2031.537829,5595.850035"/>
    <poly id="103521746" type="building" color="255,230,230" fill="1" layer="-1.00" shape="2234.414439,5587.558161 2196.246845,5529.214418 2235.705508,5502.965567 2255.738553,5531.937681 2254.758661,5532.542614 2232.847534,5545.956045 2233.861167,5547.852166 2231.744932,5549.070375 2232.634618,5550.464203 2250.741603,5576.979441 2234.414439,5587.558161"/>
    <poly id="103521748" type="building" color="255,230,230" fill="1" layer="-1.00" shape="2018.249356,5577.877950 2013.806100,5571.486944 2009.835441,5565.771106 2008.448286,5563.779499 2006.184661,5560.527690 2004.751608,5558.479705 2002.259488,5554.890455 2001.543158,5553.855353 2000.767865,5552.619171 1996.584316,5546.566175 2051.844438,5510.227645 2063.034868,5503.269171 2081.540646,5530.702237 2043.167089,5555.748819 2045.074180,5559.272150 2018.249356,5577.877950"/>
    <poly id="103521750" type="building" color="255,230,230" fill="1" layer="-1.00" shape="2042.751740,5614.452166 2030.920723,5596.272510 2031.537829,5595.850035 2044.709409,5586.904058 2050.014371,5594.943994 2057.018373,5590.467323 2051.701663,5582.649435 2061.243255,5576.550783 2073.093268,5594.097385 2042.751740,5614.452166"/>
    <poly id="103521754" type="building" color="255,230,230" fill="1" layer="-1.00" shape="1998.551001,5503.059762 1997.424558,5501.350607 2000.919759,5499.056553 1997.836876,5494.401090 1986.545859,5501.746856 1972.973553,5510.808102 1972.342194,5511.152538 1976.551533,5517.517140 1977.405402,5516.965497 1998.551001,5503.059762"/>
    <poly id="103521757" type="building" color="255,230,230" fill="1" layer="-1.00" shape="1977.405402,5516.965497 1998.551001,5503.059762 2001.790075,5501.105678 2011.590219,5515.704188 1990.390785,5529.119947 1988.289553,5529.493904 1987.216444,5529.185950 1985.995670,5528.830928 1983.724027,5526.912562 1977.405402,5516.965497"/>
    <poly id="103521759" type="university" color="237,199,199" fill="1" layer="-2.00" shape="1966.333172,5500.933143 1963.637949,5502.630163 1937.300707,5461.045118 1953.598319,5450.798504 1959.858307,5446.853087 1981.309542,5433.352775 1985.846372,5430.499283 2008.108306,5465.644494 2000.805136,5470.238166 2004.888085,5476.678339 1980.141205,5492.242791 1966.333172,5500.933143"/>
    <poly id="103521759#1" type="building" color="255,230,230" fill="1" layer="-1.00" shape="1966.333172,5500.933143 1963.637949,5502.630163 1937.300707,5461.045118 1953.598319,5450.798504 1959.858307,5446.853087 1981.309542,5433.352775 1985.846372,5430.499283 2008.108306,5465.644494 2000.805136,5470.238166 2004.888085,5476.678339 1980.141205,5492.242791 1966.333172,5500.933143"/>
    <poly id="103521760" type="building" color="255,230,230" fill="1" layer="-1.00" shape="1972.973553,5510.808102 1966.333172,5500.933143 1980.141205,5492.242791 1986.545859,5501.746856 1972.973553,5510.808102"/>
    <poly id="103521763" type="building" color="255,230,230" fill="1" layer="-1.00" shape="2119.048878,5662.402526 2130.936081,5654.045169 2113.818558,5626.369841 2100.665930,5635.127087 2119.048878,5662.402526"/>
    <poly id="103521764" type="building" color="255,230,230" fill="1" layer="-1.00" shape="2155.103551,5636.326198 2141.662296,5616.417437 2155.313217,5608.213659 2168.299783,5627.758761 2155.103551,5636.326198"/>
    <poly id="103521765" type="building" color="255,230,230" fill="1" layer="-1.00" shape="2094.180395,5634.167465 2110.709981,5659.743038 2083.443703,5677.251636 2066.406930,5652.067216 2094.180395,5634.167465"/>
    <poly id="103521766" type="building" color="255,230,230" fill="1" layer="-1.00" shape="2076.825696,5607.954974 2094.180395,5634.167465 2066.406930,5652.067216 2049.870449,5626.869492 2076.825696,5607.954974"/>
    <poly id="103521768" type="building" color="255,230,230" fill="1" layer="-1.00" shape="2168.299783,5627.758761 2175.296025,5623.282082 2162.423388,5603.483385 2155.313217,5608.213659 2168.299783,5627.758761"/>
    <poly id="103522207" type="building" color="255,230,230" fill="1" layer="-1.00" shape="1736.503405,5500.089015 1758.448466,5483.373888 1755.102453,5479.002840 1746.833083,5468.410312 1728.547770,5445.216287 1726.906452,5446.543076 1712.065675,5458.405187 1708.755335,5460.858249 1722.348599,5477.568129 1722.278499,5481.534272 1736.503405,5500.089015"/>
    <poly id="103522208" type="building" color="255,230,230" fill="1" layer="-1.00" shape="1682.434636,5437.255650 1692.063364,5449.216793 1699.729581,5443.084461 1712.065675,5458.405187 1726.906452,5446.543076 1720.023480,5437.986566 1716.406697,5433.455171 1712.752413,5428.834211 1706.888947,5421.407047 1705.145586,5419.220294 1686.668012,5433.874269 1682.434636,5437.255650"/>
    <poly id="103522209" type="building" color="255,230,230" fill="1" layer="-1.00" shape="1767.195313,5537.682777 1757.896567,5543.763935 1757.284474,5543.019646 1750.689915,5534.957173 1748.659328,5536.199282 1738.433241,5523.116171 1740.233599,5521.192088 1734.766207,5515.683350 1735.884585,5506.356988 1760.786668,5488.605056 1770.440963,5500.433423 1773.982677,5504.785715 1779.758315,5511.866888 1786.635666,5520.290013 1789.045361,5523.244267 1767.195313,5537.682777"/>
    <poly id="103892924" type="building" color="255,230,230" fill="1" layer="-1.00" shape="2198.049405,5510.442970 2225.835432,5492.332843 2220.530399,5484.303867 2222.439441,5482.870826 2220.145822,5479.551726 2209.226843,5463.721682 2206.087427,5459.176240 2203.974916,5460.183376 2199.694529,5453.428394 2177.880123,5465.787989 2175.823218,5463.662213 2170.728544,5467.116894 2177.653652,5478.108447 2198.049405,5510.442970"/>
    <poly id="103892925" type="amenity" color="237,199,199" fill="1" layer="-1.00" shape="2040.315787,5492.175585 2042.377899,5490.923014 2043.033688,5490.523452 2046.667976,5488.320794 2036.264525,5472.044566 2029.704911,5475.695655 2032.964273,5480.976597 2040.315787,5492.175585"/>
    <poly id="103892925#1" type="building" color="255,230,230" fill="1" layer="-1.00" shape="2040.315787,5492.175585 2042.377899,5490.923014 2043.033688,5490.523452 2046.667976,5488.320794 2036.264525,5472.044566 2029.704911,5475.695655 2032.964273,5480.976597 2040.315787,5492.175585"/>
    <poly id="103892933" type="building" color="255,230,230" fill="1" layer="-1.00" shape="1829.315631,5631.698348 1821.302855,5619.432166 1819.935068,5620.319245 1814.227734,5611.594494 1809.547331,5614.623373 1815.657759,5623.977586 1823.267254,5635.625404 1829.315631,5631.698348"/>
    <poly id="103892933#1" type="commercial" color="209,209,204" fill="1" layer="-3.00" shape="1829.315631,5631.698348 1821.302855,5619.432166 1819.935068,5620.319245 1814.227734,5611.594494 1809.547331,5614.623373 1815.657759,5623.977586 1823.267254,5635.625404 1829.315631,5631.698348"/>
    <poly id="103892935" type="building" color="255,230,230" fill="1" layer="-1.00" shape="1792.285376,5640.545016 1785.074603,5644.796055 1792.707370,5656.455360 1799.383355,5651.950381 1792.285376,5640.545016"/>
    <poly id="103892936" type="building" color="255,230,230" fill="1" layer="-1.00" shape="1817.821133,5639.085255 1811.771985,5643.056761 1811.528844,5642.663500 1804.740798,5631.852598 1810.826265,5628.037312 1817.821133,5639.085255"/>
    <poly id="103892939" type="building" color="255,230,230" fill="1" layer="-1.00" shape="1811.528844,5642.663500 1805.550808,5646.591817 1798.864916,5635.749389 1804.740798,5631.852598 1811.528844,5642.663500"/>
    <poly id="103892941" type="building" color="255,230,230" fill="1" layer="-1.00" shape="2166.598209,5404.776657 2164.874640,5401.923334 2162.520891,5398.025307 2152.139154,5404.320060 2156.010373,5411.234443 2166.598209,5404.776657"/>
    <poly id="103892942" type="building" color="255,230,230" fill="1" layer="-1.00" shape="1785.074603,5644.796055 1778.638712,5648.983014 1779.546072,5650.265957 1786.192568,5660.685368 1792.707370,5656.455360 1785.074603,5644.796055"/>
    <poly id="103892947" type="amenity" color="237,199,199" fill="1" layer="-1.00" shape="2077.013848,5467.754943 2072.311873,5460.525825 2064.361045,5448.304879 2041.909322,5466.210206 2052.458626,5469.408867 2059.101406,5479.584019 2062.146163,5477.570954 2066.630081,5474.616564 2068.749655,5473.209436 2071.098376,5471.661900 2077.013848,5467.754943"/>
    <poly id="103892947#1" type="building" color="255,230,230" fill="1" layer="-1.00" shape="2077.013848,5467.754943 2072.311873,5460.525825 2064.361045,5448.304879 2041.909322,5466.210206 2052.458626,5469.408867 2059.101406,5479.584019 2062.146163,5477.570954 2066.630081,5474.616564 2068.749655,5473.209436 2071.098376,5471.661900 2077.013848,5467.754943"/>
    <poly id="103892948" type="amenity" color="237,199,199" fill="1" layer="-1.00" shape="2033.741092,5496.237588 2040.315787,5492.175585 2032.964273,5480.976597 2025.775731,5484.394280 2033.741092,5496.237588"/>
    <poly id="103892948#1" type="building" color="255,230,230" fill="1" layer="-1.00" shape="2033.741092,5496.237588 2040.315787,5492.175585 2032.964273,5480.976597 2025.775731,5484.394280 2033.741092,5496.237588"/>
    <poly id="103892950" type="building" color="255,230,230" fill="1" layer="-1.00" shape="1986.621685,5351.443091 1974.582749,5333.048739 2005.957072,5313.134198 2015.369592,5326.247784 2029.443487,5329.042105 2032.110082,5332.934509 2027.615182,5335.622016 2015.676745,5332.732183 2001.728995,5341.786726 2002.901305,5343.996784 1996.544732,5347.651509 1994.894559,5345.944189 1986.621685,5351.443091"/>
    <poly id="103892951" type="amenity" color="237,199,199" fill="1" layer="-1.00" shape="2046.667976,5488.320794 2050.682426,5485.835936 2051.543725,5485.306661 2053.740637,5483.945351 2046.203192,5472.654146 2041.909322,5466.210206 2041.825541,5466.086476 2035.461779,5470.152217 2036.264525,5472.044566 2046.667976,5488.320794"/>
    <poly id="103892951#1" type="building" color="255,230,230" fill="1" layer="-1.00" shape="2046.667976,5488.320794 2050.682426,5485.835936 2051.543725,5485.306661 2053.740637,5483.945351 2046.203192,5472.654146 2041.909322,5466.210206 2041.825541,5466.086476 2035.461779,5470.152217 2036.264525,5472.044566 2046.667976,5488.320794"/>
    <poly id="103892952" type="building" color="255,230,230" fill="1" layer="-1.00" shape="2166.598209,5404.776657 2156.010373,5411.234443 2154.943541,5411.893415 2156.548979,5415.678143 2152.734310,5417.910879 2151.314010,5415.585258 2142.630393,5420.443220 2146.492490,5426.990702 2171.093176,5411.335385 2166.598209,5404.776657"/>
    <poly id="103892955" type="building" color="255,230,230" fill="1" layer="-1.00" shape="2150.634527,5371.065071 2145.547222,5362.206545 2133.681737,5369.308490 2133.145742,5364.275843 2135.465490,5363.483509 2137.803766,5361.646870 2139.309748,5359.584316 2139.979368,5357.084626 2140.023713,5354.584956 2139.432142,5352.685227 2138.218519,5350.163241 2135.521378,5348.437309 2132.395145,5347.548366 2129.457280,5347.496251 2126.922818,5348.495928 2123.951975,5350.743650 2123.060038,5353.439435 2122.582865,5356.987175 2123.159858,5359.709016 2124.595287,5361.623711 2121.376440,5365.956305 2114.639473,5355.801647 2102.251695,5362.827708 2096.424884,5366.136108 2086.253802,5372.012405 2101.955421,5397.162051 2113.609855,5390.056305 2115.441064,5393.011540 2119.005507,5390.785456 2150.634527,5371.065071"/>
    <poly id="103892957" type="building" color="255,230,230" fill="1" layer="-1.00" shape="1823.267254,5635.625404 1817.821133,5639.085255 1810.826265,5628.037312 1810.271433,5627.149561 1815.657759,5623.977586 1823.267254,5635.625404"/>
    <poly id="103892959" type="building" color="255,230,230" fill="1" layer="-1.00" shape="1765.985677,5673.274811 1766.570977,5674.207550 1762.674548,5676.661330 1759.149460,5678.888303 1751.479256,5666.250423 1750.831601,5665.749995 1751.977656,5665.025679 1749.289023,5660.610686 1747.722437,5661.249776 1743.187313,5653.412639 1750.802602,5648.824198 1755.007739,5655.433063 1755.547146,5656.309423 1751.114511,5659.031558 1754.055279,5663.773290 1758.369537,5661.115743 1759.129236,5662.351619 1765.985677,5673.274811"/>
    <poly id="103892962" type="building" color="255,230,230" fill="1" layer="-1.00" shape="2199.694529,5453.428394 2203.309278,5450.569802 2189.177309,5429.048400 2185.958420,5424.134825 2181.277941,5428.030262 2179.631585,5426.111809 2152.333408,5442.708299 2170.728544,5467.116894 2175.823218,5463.662213 2177.880123,5465.787989 2199.694529,5453.428394"/>
    <poly id="103892963" type="amenity" color="237,199,199" fill="1" layer="-1.00" shape="2059.101406,5479.584019 2058.236954,5480.291047 2055.120437,5482.825158 2053.740637,5483.945351 2046.203192,5472.654146 2052.458626,5469.408867 2059.101406,5479.584019"/>
    <poly id="103892963#1" type="building" color="255,230,230" fill="1" layer="-1.00" shape="2059.101406,5479.584019 2058.236954,5480.291047 2055.120437,5482.825158 2053.740637,5483.945351 2046.203192,5472.654146 2052.458626,5469.408867 2059.101406,5479.584019"/>
    <poly id="103892965" type="amenity" color="237,199,199" fill="1" layer="-1.00" shape="2012.504200,5511.319583 2024.305655,5503.838439 2024.923163,5503.393745 2026.330268,5502.496293 2016.594673,5487.343248 2010.863492,5490.997924 2013.091951,5494.471373 2009.321113,5496.882779 2007.115502,5493.443076 2002.791436,5496.200304 2012.504200,5511.319583"/>
    <poly id="103892965#1" type="building" color="255,230,230" fill="1" layer="-1.00" shape="2012.504200,5511.319583 2024.305655,5503.838439 2024.923163,5503.393745 2026.330268,5502.496293 2016.594673,5487.343248 2010.863492,5490.997924 2013.091951,5494.471373 2009.321113,5496.882779 2007.115502,5493.443076 2002.791436,5496.200304 2012.504200,5511.319583"/>
    <poly id="103892968" type="building" color="255,230,230" fill="1" layer="-1.00" shape="2162.520891,5398.025307 2161.114639,5395.788839 2159.054372,5392.529471 2148.676375,5398.613146 2152.139154,5404.320060 2162.520891,5398.025307"/>
    <poly id="103892970" type="building" color="255,230,230" fill="1" layer="-1.00" shape="2159.054372,5392.529471 2154.981303,5385.978239 2143.130633,5392.246943 2146.782306,5399.201877 2148.676375,5398.613146 2159.054372,5392.529471"/>
    <poly id="103892971" type="building" color="255,230,230" fill="1" layer="-1.00" shape="1805.550808,5646.591817 1806.249960,5647.715497 1799.383355,5651.950381 1792.285376,5640.545016 1788.880797,5635.072709 1795.794881,5630.805313 1798.864916,5635.749389 1805.550808,5646.591817"/>
    <poly id="103892972" type="amenity" color="237,199,199" fill="1" layer="-1.00" shape="2027.380909,5500.103363 2029.032196,5499.099109 2033.741092,5496.237588 2025.775731,5484.394280 2019.841200,5488.056457 2027.380909,5500.103363"/>
    <poly id="103892972#1" type="building" color="255,230,230" fill="1" layer="-1.00" shape="2027.380909,5500.103363 2029.032196,5499.099109 2033.741092,5496.237588 2025.775731,5484.394280 2019.841200,5488.056457 2027.380909,5500.103363"/>
    <poly id="103892973" type="building" color="255,230,230" fill="1" layer="-1.00" shape="1786.192568,5660.685368 1787.249505,5662.348803 1784.127386,5664.327288 1784.857399,5665.473737 1780.763077,5668.068477 1779.020252,5665.414958 1771.984517,5654.466355 1763.866253,5641.531596 1768.237187,5638.763926 1776.708560,5652.060555 1779.546072,5650.265957 1786.192568,5660.685368"/>
    <poly id="103896385" type="building" color="255,230,230" fill="1" layer="-1.00" shape="1776.441523,5619.872229 1749.826905,5637.260414 1717.691880,5587.594591 1730.313196,5582.338912 1741.646801,5578.305163 1742.669805,5579.679049 1748.489155,5576.770274 1760.323171,5594.827176 1776.441523,5619.872229"/>
    <poly id="103896391" type="building" color="255,230,230" fill="1" layer="-1.00" shape="1759.471979,5568.707405 1752.969488,5572.237540 1766.046490,5591.161027 1771.135332,5588.017093 1771.475558,5586.456159 1769.331725,5583.495499 1759.471979,5568.707405"/>
    <poly id="103896392" type="building" color="255,230,230" fill="1" layer="-1.00" shape="1752.969488,5572.237540 1747.362659,5575.061164 1748.489155,5576.770274 1760.323171,5594.827176 1766.046490,5591.161027 1752.969488,5572.237540"/>
    <poly id="103933621" type="building" color="255,230,230" fill="1" layer="-1.00" shape="2108.270042,5564.649049 2109.977989,5563.534689 2114.730279,5560.429510 2099.045560,5536.558121 2092.585311,5540.777676 2108.270042,5564.649049"/>
    <poly id="103933622" type="building" color="255,230,230" fill="1" layer="-1.00" shape="2084.435466,5579.895876 2085.123487,5579.441325 2087.867956,5577.611873 2090.359449,5575.944632 2078.465986,5556.441315 2077.465570,5554.678813 2073.975097,5556.706192 2078.760309,5564.525786 2076.857038,5565.636691 2077.972089,5567.545697 2077.235876,5567.632661 2084.435466,5579.895876"/>
    <poly id="103933623" type="building" color="255,230,230" fill="1" layer="-1.00" shape="2538.757467,5526.446313 2537.080090,5527.594444 2535.484010,5528.566211 2491.437985,5481.384684 2486.331873,5485.472361 2474.224653,5470.131892 2459.931579,5452.007607 2458.242385,5449.866052 2461.638787,5447.426020 2485.418740,5477.932499 2490.927891,5474.474331 2533.880015,5521.202962 2535.972486,5523.518417 2538.757467,5526.446313"/>
    <poly id="103933625" type="building" color="255,230,230" fill="1" layer="-1.00" shape="2198.049405,5510.442970 2181.826229,5521.323730 2179.816569,5518.298626 2172.387001,5507.109192 2160.694334,5489.509628 2177.653652,5478.108447 2198.049405,5510.442970"/>
    <poly id="103933626" type="building" color="255,230,230" fill="1" layer="-1.00" shape="2130.423837,5549.872583 2132.444124,5548.774883 2133.028018,5548.462960 2133.934267,5550.246028 2138.390788,5547.513466 2129.613394,5533.877506 2127.286219,5535.092008 2126.248508,5534.551282 2123.799454,5530.740482 2124.136351,5529.812955 2120.976890,5524.633751 2122.460561,5523.826584 2118.377960,5517.375222 2112.437885,5521.348382 2130.423837,5549.872583"/>
    <poly id="103933627" type="building" color="255,230,230" fill="1" layer="-1.00" shape="2407.239020,5583.316915 2384.151650,5549.466866 2404.504627,5536.670805 2425.098618,5569.209679 2420.236969,5571.423630 2421.453990,5573.745701 2407.239020,5583.316915"/>
    <poly id="103933628" type="building" color="255,230,230" fill="1" layer="-1.00" shape="2143.296894,5542.788518 2146.004033,5541.302935 2149.438144,5538.930087 2138.639468,5521.602028 2132.507599,5525.371730 2143.296894,5542.788518"/>
    <poly id="103933629" type="building" color="255,230,230" fill="1" layer="-1.00" shape="2401.899960,5588.645187 2377.580334,5553.328538 2383.925680,5550.307448 2374.783872,5536.975817 2373.915482,5535.704591 2360.511505,5517.240721 2352.089260,5505.633343 2305.148530,5535.949306 2309.439800,5542.082223 2303.483038,5546.988415 2323.323032,5574.923808 2338.795812,5565.374764 2341.858722,5569.818900 2332.370735,5575.962541 2360.321094,5616.322248 2401.899960,5588.645187"/>