<?xml version="1.0" encoding="UTF-8"?>

<!-- generated on 2022-11-18 19:21:28.139147 by dashboard.py v1_14_1+0000-f654d7b963e
  options: 
-->

<tazs xmlns:xsi="http://www.w3.org/2001/XMLSchema-instance" xsi:noNamespaceSchemaLocation="http://sumo.dlr.de/xsd/taz_file.xsd">
    <!-- id="197561" name="Westmount" -->
    <taz id="197561" edges="-24237853#0 142440389#2 316471332 474838163#0 677978758 20187011#1 82672450#2 316471347#0 -20180834#1 -450083109#0 766599359 -451864531#0 -453749091#2 416431086#0 -92352349#4 -20186985#6 1010236632#3 409362602 -20186992#0 48431535#2 -474838161#0 20186992#2 -795633560#2 -878731750#2 20172517#2 35160767#2 -730831359#0 -825948056#3 20186994#1 1015005519#2 35160764#0 -20187007#1 -730831359#2 329067231#3 20177019 -20182934#1 451864531#6 -878731753#0 316471333#1 -20186978#2 344496846#0 -20177018#1 480883311#1 409362605#0 316471337#1 455490837#0 20180823#1 20184585#3 475308538#1 -538184518#0 554314850 -451864531#2 -455253326#2 92352350#4 20187413 -990622073#1 -313779914#2 -20186983#1 -20186985#8 -35160257 878731743 453749091#3 -20186992#1 20186994#3 379987211 990622076 990622073#2 20172534#1 933076433#0 -20184585#8 20180835#0 508946012#0 -20187011#0 -92352351 142440389#1 -40037949 730831359#1 453745512#7 -451864535#1 28754631#1 -24237824#2 -20180833#2 -199124593#0 332574396#0 92352351 -433339335#1 -313779914#1 20187012#0 1010236634#3 35160767#0 -20184585#2 332574396#2 -20172517#4 474838162 316471337#9 933076434#0 -92352132 20187015#0 -52638659#14 316471337#10 451864531#0 -20180824#1 -20176248#0 -24237867 20176248#2 677978759#1 35160110#2 766599360 1095184220#1 416431087#0 82672454 35160749 825948056#4 451799491 -92352133#1 477628425#0 20172517#0 -20176469#0 20170334#1 20176252#0 -475308538#1 -453727318 674384764 -453749091#1 35160768#1 -165215460#3 -1078004765#1 -20172532#0 453745512#3 316471346#2 -453749090 -730831359#1 878731747#1 1112428000 517748697#0 -20186985#1 475308538#2 -48431544#0 422633541#3 -453749091#0 40037947#0 -92352348 480883312#0 -453727319#0 35160764#1 -475308538#2 -20186979#1 536142601#2 -20180833#3 20187007#0 35160766#0 878731742#4 132491758#2 20187011#4 422636297 20176258 20176249#0 409362603 -536142601#1 -20176257 20182934#8 -35160683 -20186993#1 453994592 92352350#0 933076552#1 20172532#0 -20184579 -20176251#1 451799488 501720023#1 -1015005519#0 451864535#0 235291582 -729092400#4 -92352350#3 165217773#3 1010236634#0 -20182937#1 35160745#3 657309735#4 433339328#3 416431082#1 855135534 35160266 316471348 20184585#4 -20180834#2 -165217773#1 -468774195 20182934#2 -453729928 933076431#0 -657309735#3 480665352#3 20176469#1 878731736#0 -480665352#5 657309735#1 -1078004859 266642237#9 729092400#1 450083106#1 416431082#0 878731742#3 20186978#0 20170321#1 1095184218 35160272#1 878731736#2 933076559#0 20182934#6 20186985#2 337432392#0 35160493#1 28754629#1 -453727319#4 20176255 -792723284#0 -792723287#0 -35160110#0 -453725262 -20186983#0 -878731752 313779914#4 933076558#2 -20176249#0 433339335#1 -248181602#0 453745512#5 501720023#2 409274591 24237867 -20186995#1 -20170333 20180829 825948056#3 -20176252#2 -996640413#7 316471345#0 20186987#1 24237824#2 700570518 -477628425#0 -20176255 20186983#1 35160493#5 933076432 416431087#3 -990622073#4 453745512#12 149967009#4 316471337#7 -990622075#1 409265732#1 -463622074#0 766599357 -501720023#2 -480665352#2 -795633563 313779914#6 -480665352#4 677978763#1 28754631#6 -451864531#6 468774195 -450083106#0 -795633560#1 132491755 -878731753#1 20173306 20176248#1 -422633541#9 35359869#1 451799495#0 -342319163#3 1078004771#0 450083109#1 -20180834#3 409362605#1 -451864531#4 20184581#1 20186985#3 878731735 538184518#0 132217961#0 -496972493 416431080#0 40654347 -329067231#4 -990622073#2 -536142601#2 -20176252#1 451618776 677978759#2 475308635 475073584#1 1010236633#5 453727319#2 -990622073#0 475073584#0 -657309735#1 -20187014#1 20186985#4 933076560#2 451864531#3 20176469#2 92352157 433339328#2 990622074 -450083111#1 266642234#2 48431544#0 536142599#3 92352348 729092402#1 878731744 453745512#6 20186979#0 450083113 453998153 792723284#1 453745512#11 933076433#2 28754631#5 795633560#1 35160110#1 35160765 20186994#0 316471345#1 20176249#1 677978761#0 -344496846#3 -475250512#0 78456292 -451799494 -92352350#4 20186990 1010236635#0 20186982 20180833#0 -39422979#2 -450083106#1 20172521#0 149967009#2 344496846#2 -990620410#0 -536142601#8 316471333#0 -536142601#5 -20172521#1 35160740#0 1095184219 20180833#2 1010236638#1 501720023#4 20172531#1 35160493#0 -20180831#4 -24237824#0 -825948056#1 709229110#0 451799490#0 20184580 199123453#0 573846723 990620410#0 -329067231#2 20186995#0 316471341#0 20170314#0 20180824#1 132491763 316471344 -20187011#4 422633541#2 20187007#1 82672450#1 -20182934#0 -20187007#0 -20186980#1 -235236100 -20184584 -729092400#6 -20186993#2 -20186985#2 20170333 20176248#3 480665352#6 20187011#3 -20186992#2 -20172521#2 -501720023#0 -20172522#3 -450083109#1 -34747048#2 433339328#1 20187014#0 795633560#2 -20176249#2 -165215460#4 -508946012#3 942325095 990622073#0 -20187015#0 -451864531#5 -674384764 440263208#0 337432392#1 -20186989#1 20182936#1 28754631#2 1095184221 316471337#6 -1010236636#3 316471343#0 -990620409#0 199124593#0 933076561#0 20186983#0 348272173 199123453#1 792723287#0 20180820 475250512#1 20184574 618321880 35160745#2 266642237#3 -475308538#3 657309737 729092400#2 316471337#8 20176252#2 316471341#2 20180835#1 -422633541#0 316471337#5 132491757 766599361 795633559 795633561 1010236633#1 -475308635 -165215460#2 -92352350#1 453729929 344496846#3 20186985#7 20172517#5 451864536 316471333#2 -508946012#1 -92352158 463622074#0 -433339332 337432397 92352347 -20186987#2 451864535#1 78567732 -92352349#2 92352349#1 -20180831#2 475073587#3 536142601#5 -20176253#0 142440389#0 508946012#2 657309731 20180824#0 -20182934#7 933076431#1 -20186994#3 -20184585#3 -422633541#4 316471335#1 20187011#2 20177018#1 35160272#3 -475308538#0 337432394 451864531#2 1010236634#5 -480665352#6 -332574390#1 20182934#0 -165217773#3 20182934#7 -433339335#0 316471343#1 -20186993#0 -199124136#0 451799489 -20180835#2 20184579 450083111#3 933076558#0 422633541#5 -20187011#1 -474838162 -1110883233 20177017 -657309736 20180833#1 416431085#1 20186993#3 -20180831#0 480883311#2 -20186985#5 416431080#1 -48431544#1 20182934#1 -20170314#1 20187010#1 -792723287#1 -495837420 755626592 20172522#2 -20187014#0 -825948056#0 453745801 536142601#3 82672450#4 878731736#1 -453741481 35160493#3 40038106 20180831#4 -766599361 657309733 332574392 500988175 -20186985#0 -453998154#2 20180834#3 453727319#4 -78456291 92352349#0 1010236635#1 -165215460#6 266642237#6 20187010#0 453727318 -20180835#0 1095184220#0 878731736#3 -20184581#1 20186978#2 20172517#6 1010236633#2 1082794931#1 825948056#1 -24237853#1 -474838163#2 -142440389#2 165215460#2 132491764 -20186994#0 878731742#2 316471342 475308535#1 -35160264 165215459 92352133#0 657309735#2 480665352#4 1078002417 -20177018#0 -20170321#0 165215457#2 20187018 -1110883234 1015021753 20182934#4 -20176251#2 337432395 453729928 -657309732#1 329067231#1 495837426 -20172517#2 1078004859 1078004770 -20180823#1 709229110#1 -92352157 -709229111 78567720 20176469#0 -990620410#1 20186985#8 344496724 199124136#1 78456291 990620411#1 -313779914#6 450083106#0 536142601#4 266642237#8 1010236637#2 -465159966 316471337#2 -501720023#4 -450083111#3 -165215457#2 -536142601#0 1082752884#1 316471337#4 28754631#0 474838163#1 674384763 -508946011 933076559#2 20177018#2 132491765 440263207 35160110#3 -501720023#3 35161994 20170314#3 -500988175 165217773#1 657309735#0 48431544#1 453727319#3 20569518#0 795633562 20182936#0 -20187413 20186998#5 35160771#0 316471341#1 20184581#0 20187011#0 -344496846#2 677978763#2 -313779914#4 -20184585#4 677978763#0 734026215 -538184517#0 -92352349#0 -165215460#5 -40037947#0 453998154#1 20187012#1 -20187400 -508946012#5 -20186978#4 508946011 313779914#2 20186985#0 -20186987#1 508946012#4 730831359#4 -909193718 -20180833#0 138758350 -501720023#1 416431086#1 536142601#0 -20186979#0 677978760 -657309735#0 138758325#1 20187010#2 -453534189#0 -199124136#1 -451864531#1 416431081 538184517#1 1015005519#1 -20182936#0 -20170305 -40654347 35160274 -409274591 -35160110#1 20180834#0 455253326#1 78567721 1077998340#1 657309736 -463622074#1 -657309735#2 82672450#0 1077998345 92352132 329067231#2 -165215459 730831359#0 410942553 20187009 440263208#2 766599362 20186989#1 453749090 82672450#3 1010236634#4 657309735#3 20184585#8 -20176259#0 -20182934#4 20186988#0 316471346#3 795633563 20180831#0 501720023#3 -990620411#1 316471346#0 409362604#1 -990622074 20176253#1 1078004769 20176248#0 -990620408 235291584 -20186978#0 -20182934#5 20184585#5 -20173306 132491758#0 795633560#0 35160261 -990622076 35160745#1 20172522#1 132491759 24237853#1 451799494 -422633541#3 20186980#1 422633541#6 82672449#1 -422633541#2 -20172522#2 20170314#4 -20182934#2 1110883234 -20176469#2 440263206 149967009#0 825948056#0 -20176248#1 -20182936#1 -450083112#1 -20180833#1 -20172517#5 235291583 35160768#0 -20176258 -20186984 35160110#0 -495837426 1078004766#0 20186989#2 -729092401 -343340503 -792723285 -20180827 -20180823#0 416431085#2 20176251#2 -20182937#2 316471336#0 20184585#1 1010236631#0 -451864531#3 451864533 20180834#2 -729092400#0 -453727319#1 -795633562 -142440389#0 1082794932#1 -48431524#1 -508946012#2 933076562 -20172517#1 24237853#0 92352350#1 474838161#0 -729092400#1 266642237#2 -453745806 1010236633#4 -40037948#1 -35160266 517748700 -1078004770 316471334 266642234#3 -20172532#1 20186992#0 -20180834#0 -451799495#0 20186993#2 -20569518#0 -20186989#0 -933076552#1 20186984 677978761#1 -165215457#1 20180833#3 20186979#1 1077998337#1 -20172534#1 20180821#0 480665352#5 878731738 453745512#9 344496846#1 453749091#0 -20186985#7 -165215460#1 20184581#2 -538184517#1 433339328#0 508946012#3 709229111 -878731734#0 409265732#2 149967009#3 812865452 -657309737 451864531#1 -878731734#1 316471339 -657309731 1010236636#2 266642237#0 20182937#2 -20186993#3 517748697#1 20180831#2 -20187018 -825948056#4 480883312#1 -20172522#1 316471336#1 1078004767#2 332574390#1 -379987210 878731752 48431524#1 20186989#0 517748698 878731753#0 -20186992#5 316471337#0 -20176253#1 -742977501 -20187011#3 -142440389#1 878731736#4 -450083112#0 39422979#1 92352158 475308634 536142599#0 -538184518#1 342355733#3 20187015#1 501720023#0 -474838163#0 -20172517#6 -766599362 455490837#1 1078004768#0 20186995#1 20180821#1 -20176469#1 795633558 20186993#0 -20177019 475073587#1 316471347#1 -20187009 20176249#3 24237824#1 451799490#1 1082794915 -20186994#1 -35160261 422633541#8 -24237824#1 35160764#2 878731740#0 453745512#13 132491767 -35160110#3 -453727319#3 -795633561 20186985#5 -40037948#0 20172522#3 451864532 313779914#3 -795633560#0 20170314#1 878731740#1 -1082752886 -165215457#0 -40037947#1 1010236632#1 35160272#0 -729092402#1 316471346#4 453725262 453998152#0 -477628425#1 422633541#0 729092400#5 -480665352#1 82672452 196359059#0 -20187012#1 316471346#1 28754629#0 -475308535#1 1010236637#0 132217962#2 165215457#0 729092400#0 730831359#3 -35359869#1 812865451#1 40037948#0 -440262177#0 416431087#2 536142601#7 20186985#6 192586991 792723284#0 52638659#12 416431084#1 700570517#0 453749091#1 -20186995#0 165215460#3 416431083 878731732#0 -342355733#4 -451799489 342355733#4 -450083111#2 20187014#1 450083111#2 -451864536 -451864533 -20180824#0 450083112#2 82672460 496972493 1105084349#1 20186992#1 451799495#1 657309738 1010236633#0 20172534#0 792723287#1 343340503 -508946012#0 40037947#1 20180827 983406463 -755626592 35160272#4 -453749091#3 -475308636 813312953#0 638336668 20569518#1 -20172531#1 -730831359#4 -20186992#3 990620863 878731741 -20176252#0 20186992#5 -990620863 1010236632#2 453745512#4 416431085#0 20182936#2 878731745#1 453745806 -20170314#4 742977501 1078004767#0 -20177017 1077998344#0 -422635663 -453727319#5 266642234#1 -20184585#6 35160766#1 422633541#4 990622075#1 991004220 475073586 -480665352#3 1015005519#0 -20182934#6 453745512#0 933076552#2 -440262177#1 990620411#0 20186985#1 35160110#4 463622074#1 475250512#0 454754491 536142601#6 20170305 -165217773#2 20176253#0 92352349#3 440262177#1 266642234#5 316471337#3 -39422979#1 -313779914#5 -657309735#4 149967009#5 475308636 453745512#2 -20170334#1 -20186994#4 -709229110#0 878731733 92352350#3 266642234#4 -92352350#0 792723285 -20186982 35160683 813312953#1 48431522 -165217773#0 165217773#2 316471335#0 453749089 -996640413#6 20182937#0 -422633541#7 20176251#0 -20170314#3 450083109#0 1078002416 990620409#1 -463622073 -451799495#1 -344496846#1 20186978#4 20186993#1 35160257 755628441#0 40037949 -39422964 -20187011#2 1010236633#3 34747048#1 -730831359#3 475073587#2 -991004220 20172532#1 20187010#3 20182937#1 -536142601#6 -20569518#1 990620409#0 40037948#1 475308538#3 536142601#1 266642237#4 933076561#2 -475250507 165215460#5 812865457 878731737#1 20176259#0 -20184581#0 -20186985#3 48431535#0 -20184574 878731753#1 -20182934#8 -20186989#2 39422979#2 409362604#0 517748697#2 -20172534#0 39422964 433339327 -337432397 165217773#0 28754631#4 453727319#5 20187010#4 440263208#3 132491758#1 -35160110#2 -990620411#0 -451864535#0 475308537#1 -329067231#0 -729092402#0 -165217792 -20176249#4 -20180829 416431087#1 -313779914#3 35160771#1 508946012#5 -20187012#0 -20170321#1 -450083112#2 -1015005519#1 -20186992#4 433339332 -20176259#1 730831359#2 453534189#0 729092400#3 729092402#0 -729092400#2 475250507 -35160110#4 20176251#1 538184517#0 -825948056#2 453727319#0 20172517#3 878731737#0 933076435 -92352347 20172535#1 132491766 -20176251#0 536142601#8 450083112#1 538184518#1 20184585#6 35160541 266642237#1 82672449#0 453745512#8 337432393 149967009#1 -990620409#1 878731734#1 -20186988#0 165215457#1 -20170334#0 -508946012#4 -1082794932#0 1078004772#0 -20170314#0 409265732#0 825948056#2 329067231#0 451864531#5 -931545010#0 1010236631#1 20176257 379987203#1 -20172535#1 878731732#1 -20187015#1 -344496846#0 35160493#2 20176252#1 20184576 -709229110#1 20186987#0 933076429#0 -422633541#5 132491756 700570517#1 -657309738 -20186998#5 -536142601#4 -475308537#1 990622073#1 465159966 316471333#3 132217962#0 20180834#1 -329067231#1 878731734#0 536142599#2 480665352#0 20184585#2 477628425#1 20186992#3 -20184585#1 -20177018#2 -20186995#2 165215460#1 536142599#1 825948056#5 990622072 -453725261 35160745#0 463622073 -40038106 453727319#1 453749091#2 28754631#3 1010236632#0 -20184585#0 20186994#4 440262177#0 -453998152#0 20170334#0 -453727319#2 20177018#0 878731742#1 1110883233 35160272#2 266642237#5 416431084#0 313779914#5 342319163#4 20186987#2 -480665352#0 20180823#0 453745512#10 20186992#4 475308538#0 657309732#1 812865458 165215460#6 -20176248#2 -933076552#2 878731745#0 508946012#1 517748701 -451799488 266642237#7 35160767#1 440263208#1 996640413#7 132491760 933076560#0 480665352#2 -348272173 82672463 -536142601#7 -20172521#0 -342319163#4 35160264 24237824#0 20184584 -20186987#0 165215460#4 20172521#2 1077998344#2 20182934#5 933076434#2 35160493#4 990620408 -20184585#5 996640413#6 48431535#1 416431084#2 -766599360 480665352#1 20170321#0 20184585#0 729092401 20176259#1 409362605#2 453745512#1 20172521#1 20186995#2 451864531#4 453725261 -825948056#5 990622073#4 450083111#1 878731732#2 -20184581#2 -20180820 -20180835#1 990620410#1 450083112#3 433339335#0 -20182936#2 313779914#1 35160878 35160740#1 -20182937#0 -20176248#3 248181602#0 165217792 20180835#2 812865451#0 -536142601#3 -20186985#4 337432396 -475250512#1 332574396#3 422635663 878731736#5"/>
    <!-- id="197569" name="Hampstead" -->
    <taz id="197569" edges="1079052694#2 1079088962#0 -183670526#0 -20904815#2 20904793#1 1079094215 1079094219#1 1079080147#1 1079009428#1 1079094244 1080985097#5 -1079052738#6 1082079445#3 1079095065 29367216#1 -1079052705#2 -20904860 543705186 1079095067#0 1082412292#0 794408237#4 20904832#1 1079052705#0 1079080175 -20904800#3 -478018151#1 1079098100 1079052700#1 1079088606#1 1079094228#1 20904849 -20904806#2 48114747#5 -20904799#1 20904799#1 1082415764 20904806#1 20904806#0 266616035#0 -20904822#1 1082412294#0 20904815#2 1079052704#1 199125961#0 -199260849 1079088609#1 1079080141#3 1082412288#0 198357034 20904808#7 20904803#1 1079080124#0 -29365000#0 -20569526#5 -1079007427#4 20904842#1 -1079052705#3 1079094226#6 20904859#0 1079088607#0 408323103#1 1082412274#1 370488960#0 20904808#2 29366875#0 478018381 1079088605#0 -370489177#1 477684655 -543705184 -29365804#0 1079095066#1 -1082079445#4 -1079007429#2 1079087388#1 562451196#1 1082412283#2 1079088955#2 1082412876#0 1082412889 1079009449#0 408323103#0 -1082415758#0 20904813#0 1079087395 -1082412283#7 1079009434#2 20904794#1 183928758#1 1079087398#1 1079080180#1 1082415757#0 20904852#0 -20904800#4 -225186821#4 1079080124#1 -310895373#1 1079088962#2 20904825#0 -310895371#1 657054254 -543705186 1004163609 -1079087390#1 1079095069#0 1079002502 -29366875#0 1079091091#0 -20904808#2 461633857#0 1079094228#0 1079052697#0 -460709007 47971517#0 -29365272#4 20904820#1 477683885 -1079052705#10 1079052705#2 171973697 1079088961#1 266616038#2 1079094247 29366374#1 1079098089#0 172220379#0 1079007963#1 -20904803#1 1079080178#1 1079088955#0 -23630060#3 1082412875#1 1079094243 23630060#2 266616039#3 1079094241 165214086#3 1082412292#1 20904826 794408237#3 20904829#1 1079007429#1 20904803#0 -20569526#2 1079095078#1 47971521#1 1079080151#1 1079091074#0 543705184 1082079445#5 453293290 20904827#5 1079007427#4 1079091083#0 1079080167#2 -1079080143#3 562451191#1 1079052740#1 1079052684#0 20904827#3 -20904827#4 1079094245#1 1082402414#1 -1079007429#4 -20904832#0 1079080161#1 1079098089#2 184514710#3 29366374#0 -20904806#6 657054256 1079095081 -23630060#1 -20904806#0 -20904813#0 1079091091#1 179623344#0 20904827#1 1082412878#1 1079080172#2 -20904801#1 -1079052738#3 -1079087912#1 1079052729#0 1079080152#0 1079094226#0 -20904806#4 -1079095079#1 -1079007430#2 1079052694#0 266616036 1079007428#4 -1079052738#2 -1079080153 1079094224#0 1079088957#2 474753357#1 1082412273#1 543705191#1 266616039#1 543705191#0 1079088963#0 1079052696#0 20904859#1 -20904806#7 1079095075#1 1079087392#0 -20904825#0 1079052698#1 20904856 1082412276#0 -1079052738#9 1079087906#1 1079098098#0 1082412275#0 -20904790#1 -1079095079#0 1079052721#0 -20904842#4 1079088960#0 -20904846 -29365000#2 1079052703 -20904818#1 1079087398#0 -20904825#1 20904803#2 1079091072 1082412271 562451191#0 29365804#1 1079087393#0 1079052738#1 20904861#2 1079088961#0 1079095072#2 1079088960#2 -29365000#3 1082412283#1 20904790#0 1079052705#8 1079087391#0 1079052724 1079098094#1 199260847#1 20904815#3 1082412879#1 1079052698#0 -20904827#5 -20904787#0 1079052742#1 1079094226#3 1109172993 20569526#1 68254908#1 1082412289#0 1079080157#0 20904808#1 -20904828#2 23630060#1 23630060#4 -477567817#0 -20904793#0 1079088604#0 20904842#6 165214086#2 -1082402416#0 465427172 1079052734#0 20904808#4 1079052702#0 1079098090#0 1079095069#2 1079094226#1 20904835 1082412885 172220379#1 184514710#4 29365799#2 20904850#1 -1079080168#1 -20904826 -20904853#1 -20904828#3 1079009427#0 1002164672 1079007429#3 1079052730 1079091094 1079094245#3 20904803#5 1079091086#1 165214086#1 544578614#1 1079087394#0 1079052710#0 1079094232#0 -20904808#6 -20904818#2 1079094220#0 -1079052705#5 -20904828#1 1079094237 199260847#2 20904850#0 1079080154#0 -20904828#0 1079088954#0 20904828#1 -477567817#1 -478018150#1 1082402344 -29376908#0 1079087912#4 -20904842#1 1079080173#0 1079091093#0 183670526#1 -20904829#1 1079087386 1079091073#0 1082412874#0 -29366374#0 1079088958#0 29364998#1 -1079052705#13 29365799#3 -29367216#1 1079007429#7 171973699#1 1079080145#1 29376908#1 1082412275#1 1079095073#1 -1079007430#1 23630060#6 -1082079445#5 1079080139#0 1079091053 -20904787#1 1079080178#0 1082412286 -20904808#1 -48114747#6 1079088606#0 1079080155#0 1079088954#1 1079080151#2 1079080150#1 20904818#2 1079052705#11 475057979#0 1079009487#0 -47971517#1 1079094226#7 1079094255 -20904808#7 -20904815#1 1079094249 1079094245#4 1079007429#8 1079098097#3 199260847#0 1079080119 172220379#2 68254908#2 1079087397#3 1079052692#0 1082412295#1 1082415756#0 20904790#1 266616038#1 794408237#2 -1079087912#5 1079080156#1 1079094223#0 1079052685#1 1079052695 1079087390#1 -20904806#9 1079080161#0 20569526#2 20904829#0 1079098146#1 1079009432 20904806#7 1079052720#0 1079087910#1 266616038#0 562451196#0 1079080140#1 -20904803#5 1079052728#0 -1079007428#1 29364999#5 370489891#0 1079094239 -460709005 311051494#1 1079094246 1079098092#1 1079052718#0 1082412276#1 184514710#2 -484812829 -1079087388#0 -20904842#7 1079007427#1 -20904822#2 1079009482#1 1079052725#0 1079080141#4 1079052741#0 1079080163#1 1082412283#5 1079088957#0 1079094254 1079095072#0 -20904828#5 -20195006#2 -20904850#1 1079052711#2 20904828#5 1079087912#1 1079098146#0 1082402416#1 657054255 1079080164#0 1079094219#2 -1082079445#2 -23630060#6 -29367216#2 1079052725#1 1079080146 1082412290#0 1079080162#1 1079009473#0 1079087388#0 1079098091#1 -423515083#2 1079091083#2 29365804#0 1082402412#1 1079088611#2 -20904829#0 1079088611#0 310895371#1 1082412300#2 1082412297 1109170545 29364999#1 20904832#0 20904806#6 1079094223#1 1079091090 1075387548#0 1079080158#1 1079087382 1079087911#1 1079052701#0 1082412283#7 1079052726#1 1079080160#1 1079009481 20570488#1 1079052738#8 1079087914#1 461633450#1 -1079052705#12 1082412287#0 266616039#2 1079087400#1 1079094245#7 453298230 -20904861#2 1079080180#0 1079052736#0 -1079080146 1079087394#1 1079052717#0 29365000#1 1079052738#6 1082412285 477567817#0 1079094231#0 1079098092#0 -20904818#0 1079052727#1 955435113#0 1079007962#1 461633450#3 47971512#1 1079009473#2 310895373#1 1079002501#1 1079052707#1 1079091052#1 1079052741#1 1079007430#1 1079009443#0 1079052739#0 1079080143#2 -48114747#4 1079080148#1 -47971517#0 1079087393#1 1082412287#1 1079080141#1 29365272#0 20904808#5 29364999#3 543705193#0 1079091058#1 1079052735#0 1079088605#2 1079009424 20904808#8 1079080153 -20569526#3 1079080164#1 1079095073#0 460709005 -20904803#2 1079094256 1079095075#0 -1082415755#0 1079094219#4 1079098128 1079088610#2 1082412293 1079098097#0 370489891#1 453295841#3 1002734272#1 478018151#1 1079052684#1 484812829 1082415755#0 1079007429#2 266616035#1 1079009450 1079052699 1082402421#1 -1082412283#2 1079080172#0 1082412279#1 657054257 20904806#2 -1079052705#9 1079052712 48114747#2 -20904849 1079009431#2 -1079052705#0 1079094242 1079080162#0 20904793#0 -1082412878#1 1082412876#1 1079002501#0 1079080143#3 1079080181#1 1079095070 20904825#1 1079052693#0 -1082412283#6 1079098101#0 216614780#1 1079080167#1 -1082415756#0 1079052722 1079052697#1 20904805#3 1079091058#0 1082412874#1 23630060#3 1079094230#1 1079009427#1 -1079080167#2 20904861#0 -29364999#4 1079080154#1 1079080141#2 1079052705#1 1002734275 1079080151#0 -1079007427#1 -29364999#1 1079009443#2 -1109172993 1079091085#2 1079080136#1 20904806#9 -29364999#5 -29365274 1079009431#0 29367216#2 -1079087388#1 1079080123 1079091059 1082412295#0 20904846 171973699#0 1079091092#0 1082412273#0 370489177#0 -1079007429#7 1079046964#1 -20904806#8 1079080137 1079091076#1 -1082079445#3 -29366374#2 1082412272#0 20904808#0 20904852#1 20904801#1 1079098097#2 475057979#1 1079080143#1 1079095077#1 20904806#4 20195006#0 1079009449#2 29366374#3 -1079094238 1079052717#2 1079052705#12 1079080152#1 1079080158#0 1079088608#1 1079095069#1 20904842#0 20904860 1079080171#3 1079052742#0 794408237#5 20195006#2 1079087905#1 1079087908#1 1079091056#0 1079095078#0 -20904808#0 1079088607#2 -29367216#0 266616037#0 -23630060#7 -1079080121 453295846 474753356 -29365000#1 1079080138#0 1079009458#1 1079094232#1 -29365272#0 29366875#2 -29364999#2 -48114753 1079052743#0 1079091093#2 29366875#1 29364999#2 453295845 -1079052738#7 -453295842 1079080138#1 1082412871 29366374#2 20904803#4 1079052686#0 543705197 1079052692#2 1082402411 172220379#3 1079094251 1079052749#0 1079094245#5 -20904806#5 -29366374#1 1079052729#1 1079087908#4 165214309 20904814#1 1005079352 -20904861#0 20904842#3 -370489177#0 1079002495#1 544578614#0 29366375 1079046967#1 1079094233#1 1082412296#1 184514710#0 1079052743#1 1079080158#2 1079009457 20904827#2 1079052686#1 20904828#4 20904806#3 -543705193#0 1002855409 -1079052738#5 -1002164672 1079080141#0 1079088608#0 -29365799#3 -29365804#1 1079088954#3 1082412278 20904857 -1079007429#8 794404890#1 -20904820#1 -794404890#1 20195006#1 -20904827#1 -20904815#3 1079052734#2 1079094227 1079094253 -20904842#0 1079091079#0 1079052702#1 1082412298 1079088604#1 794408237#1 1079088956#1 -20904856 1079052687 1082415758#0 20904828#2 1079052705#4 1079094252 1079091087#1 1079091089#1 -20904803#0 1079007430#2 29365274 478018150#1 -20904832#1 461633450#0 1079094248 -20904859#1 1079052739#1 20194995#1 20904820#0 474753357#2 -20904808#4 -20904790#0 -1079080167#1 1079009436#1 1079080173#3 266616037#1 1079095079#1 1082412888 -20904806#1 -1082402417#0 1079052723#0 29365272#3 29376908#0 1079052733#0 423515083#1 -23630060#4 47971520#0 1079052745#1 1079094233#0 -1079007428#4 1079094225 1082412872 1082412873#1 179623348#5 -1082415760#1 1079052719#0 173966360#1 1079091085#0 1079080149#0 20570494#1 20904818#3 20904800#0 1082412275#2 20904842#5 1079087391#1 1082412282 29365000#0 23630060#7 1079094230#0 -1079052721#0 1079052705#10 1079080162#2 20904832#2 -20904827#3 20569526#3 -29376908#1 -20569526#4 1079088954#2 -29366374#3 1082412289#1 -48114747#1 1079052710#2 1079080125 -311051494#1 1079080150#0 1079088958#1 1079095068#1 199260849 794408237#0 1082412880 20569526#0 -179623344#0 -1079007429#1 1079091084#1 543962834#0 1079080171#0 20569530#1 1082412300#0 -20904842#5 1079080168#1 1079080156#0 1079046966 183670526#0 -29365272#2 47971522#1 1079080140#0 -20904852#1 1075387549#1 1079052696#1 20904818#0 -1079052705#11 1079094226#2 986063696#1 -20904828#4 29365000#2 1079052715#0 1079080157#1 -171973697 -20904827#2 1079094222#0 1082412294#1 1082412280 29367216#0 1079087389#0 1079094238 172220059 1079088610#0 1079052685#0 266616039#0 47971518#1 1079052711#0 1079052747#1 -474753357#2 1079009486 -29365799#0 1079095067#1 1079095076 1079080159#1 1079087387 1079094236#0 171973826 20904806#5 20904828#0 216614780#0 1079088963#1 29365272#1 -1079080143#2 1079095066#0 20904787#0 -20904825#2 48114747#0 20904806#8 1082412299 1079052728#1 477683884#1 -171973699#1 1079080131#0 -20904800#2 1082412274#0 1079080170#2 1079098098#1 -20904806#3 1080985101#5 20569526#5 -20195006#0 -29365272#3 47971518#0 562451193#0 1079080165#0 47971517#1 -1004163609 1082412879#3 477683884#2 1079088959 1079091074#1 1002734273 1082412879#2 1082402424#1 1082412290#1 -1079087905#1 1079091084#0 1082412279#0 1079094224#1 -20904852#0 -20904805#3 -1079094256 20195006#3 225186821#3 1079007429#4 1079094226#5 1079052705#13 -1079080143#1 460709007 -20904808#5 1079052721#1 1079094222#1 20904825#2 -474753357#1 29365799#0 -20195006#1 -20194995#2 1079091079#2 -20195006#3 1079094219#3 1079098090#1 1079094245#6 20904808#6 1079088609#0 562451193#1 461633857#1 -1079087389#1 1079052709#0 20904815#1 -20904794#1 1079080177 -199125961#0 1079009464#1 1079091057 370489177#1 1079080165#1 1079091073#1 179623348#0 47971520#1 -225186821#2 1079052709#2 179623348#2 1082412281#1 1082412875#0 -29365799#2 1079052747#0 1079087403#1 20904822#1 20904827#4 29365799#5 20904861#1 -29366875#1 48114747#4 -29365799#5 1079095080 1082415765 -1079091086#1 1082412877 179623348#3 -48114747#2 1079098097#1 1082412272#1 20904800#4 -1079007429#9 20904842#2 20904853#1 20904815#4 -47971522#1 1079094221#0 1079009444#1 48114753 1079052726#0 1079095079#0 29365000#3 543962834#1 -20569526#1 -20904842#3 20904822#2 1079009423#2 1079052723#1 20904787#1 461633450#2 -1082412283#1 -183670526#1 -20904803#3 -20904842#2 1082412296#0 1079094245#2 -20904803#4 1079091052#0 1079087402#1 1079094220#1 1082412284 1079052727#0 -171973699#0 1079080155#1 -20569526#0 1079080136#0 198357035#5 -20904859#0 -1079007429#3 1079080135#1 -20904832#2 1079087906#2 1079094226#4 20904842#4 1079091078#1 1079094214 -47971519 184514710#1 225186821#1 29365272#4 -20904793#1 477567817#1 1079094236#1 -1079052721#3 1002734272#0 1079094219#0 518285666 1079080179 20904800#3 1079052737#0 1079009434#1 1079091051 -29366875#2 20904803#3 -1079052705#1 -20904815#4 1002734276 1082412300#1 1079091092#2 1079094219#5 1079087392#2 1079088956#0 1079052700#0 1082412288#1 1079080148#0 1082412291 20569526#4 -29366375 1079009465 1082412873#0 1079052701#1 1079095077#0 1079007428#1 1003300753 -955435113#0 1082079445#4 1079080166 1079009474 179623348#4 -20904815#0 198357035#4 1079080131#1 47971512#2 -20904808#8 1079080147#0 1079088604#2 20904818#1 266616038#3 1079087403#2 20904800#2 1079094221#1 1079091056#1 -29367130#2 179623348#6 -1082415757#0 -20904861#1 1079091080 1079098089#1 29364999#4 1079052705#3 1082407383 1079080181#0 -1082412283#5 -23630060#2 -20904850#0 -20904800#0 1079007429#9 1079052738#5 1079052738#7 1079080169 1079080149#1 1079094250 1082415760#1 -474753356 1079095071 1079080132 1079088609#2 1079095074 1079052693#2 1079094229 1079098101#1 183928758#0 47971519 -29364999#3 1079080139#1 1079080170#0 1079094231#1 1079052738#3 1079052740#0 -20904820#0 1079080163#0 1079080160#0 1079080121 1082412277 1082412283#6 179623348#1 20904815#0 -20904818#3 1082412281#0 479283858 1082079445#1 453295842 1079009437 1079095068#0 20904828#3"/>
    <!-- id="1572820" name="Ville-Marie" -->
    <taz id="1572820" edges="-451799494 -453749091#3 20184574 453745801 20180833#0 -20186987#2 451799495#0 465159966 -20180833#0 20170321#0 451799494 20184576 -451799495#0 -20184574 -20170321#0 -465159966 451799495#1 453749091#3 -451799495#1 -329067231#4"/>
    <!-- id="1634158" name="Montréal" -->