<?xml version="1.0" encoding="UTF-8"?>

<!-- Generated with SUMO Activity-Based Mobility Generator [https://github.com/lcodeca/SUMOActivityGen] -->

<routes xmlns:xsi="http://www.w3.org/2001/XMLSchema-instance" xsi:noNamespaceSchemaLocation="http://sumo.dlr.de/xsd/routes_file.xsd"> 
    <vehicle id="on-demand.0" type="on-demand" depart="0.0">
        <route edges="20112451#4"/>
        <stop lane="20112451#4_1" startPos="1.0" endPos="-1.0" triggered="person"/>
    </vehicle>
    <vehicle id="on-demand.1" type="on-demand" depart="0.0">
        <route edges="-573448691#1"/>
        <stop lane="-573448691#1_1" startPos="1.0" endPos="-1.0" triggered="person"/>
    </vehicle>
    <vehicle id="on-demand.2" type="on-demand" depart="0.0">
        <route edges="165265055#10"/>
        <stop lane="165265055#10_1" startPos="1.0" endPos="-1.0" triggered="person"/>
    </vehicle>
    <vehicle id="on-demand.3" type="on-demand" depart="0.0">
        <route edges="337432401#0"/>
        <stop lane="337432401#0_2" startPos="1.0" endPos="-1.0" triggered="person"/>
    </vehicle>
    <vehicle id="on-demand.4" type="on-demand" depart="0.0">
        <route edges="48678911#8"/>
        <stop lane="48678911#8_1" startPos="1.0" endPos="-1.0" triggered="person"/>
    </vehicle>
    <vehicle id="on-demand.5" type="on-demand" depart="0.0">
        <route edges="133806980#1"/>
        <stop lane="133806980#1_1" startPos="1.0" endPos="-1.0" triggered="person"/>
    </vehicle>
    <vehicle id="on-demand.6" type="on-demand" depart="0.0">
        <route edges="-1041940066#5"/>
        <stop lane="-1041940066#5_1" startPos="1.0" endPos="-1.0" triggered="person"/>
    </vehicle>
    <vehicle id="on-demand.7" type="on-demand" depart="0.0">
        <route edges="465408864#3"/>
        <stop lane="465408864#3_1" startPos="1.0" endPos="-1.0" triggered="person"/>
    </vehicle>
    <vehicle id="on-demand.8" type="on-demand" depart="0.0">
        <route edges="19912269"/>
        <stop lane="19912269_1" startPos="1.0" endPos="-1.0" triggered="person"/>
    </vehicle>
    <vehicle id="on-demand.9" type="on-demand" depart="0.0">
        <route edges="35165792"/>
        <stop lane="35165792_0" startPos="1.0" endPos="-1.0" triggered="person"/>
    </vehicle>
    <vehicle id="1572820_8805747_19_tr" type="commercial" depart="triggered">
        <route edges="329694554#2 4320473#6 4320473#8 4320473#10 686625291#0 686625291#1 453964892#1 455083968#1 455083976#0 41258973#1 41258973#2 41258973#4 455083980#0 455083970#1 41258971#1 103896396#1 103896396#3 103896396#5 103896396#6 103896396#8 103974914#1 103974914#4 103974914#5 -25366945#1 -25366945#0 19899374#2 975251637#1 975251637#2 -465656094#1 -465656094#0 -111771070 -41258976#4 -41258976#3 -41258976#2 -330153471 -455083994#3 -455083994#2 1042466504#1 4320471#10 4320471#11 4320471#12 4320471#13 455083981#1 330153472#0 330153472#1 330153472#2 465653665#1 463825906#1 463825907#1 463825907#2 337432401#0 337432401#1 337432401#3 337432401#4 337432401#5 337432401#6 231387460#0 329694558 329694559#0 329694559#1 329694559#2 329694559#3 165217839#0 165217839#2 394910074#0 329694554#0 329694554#1 329694554#2 4320473#6 4320473#8 4320473#10 686625291#0 686625291#1 453964892#1 455083968#1 455083976#0 41258973#1 41258973#2 41258973#4 455083980#0 455083970#1 4687641#1 4687641#2 103521753#0 103521753#1 -103521745#1 -103521745#0 4320471#12 4320471#13 455083981#1 330153472#0 330153472#1 330153472#2 465653665#1 463825906#1 463825907#1 463825907#2 337432401#0 337432401#1 337432401#3 337432401#4 337432401#5 337432401#6 231387460#0 329694558 329694559#0 329694559#1 329694559#2 329694559#3 165217839#0 165217839#2 394910074#0 329694554#0 329694554#1 329694554#2"/>
        <stop lane="19899374#2_1" parking="true" startPos="96.54610264819846" endPos="116.54610264819846" triggered="true" expected="1572820_8805747_19"/>
        <stop lane="4320471#12_1" parking="true" startPos="20.621684726341357" endPos="40.62168472634136" triggered="true" expected="1572820_8805747_19"/>
        <stop lane="329694554#2_1" parking="true" startPos="51.68115874420734" endPos="71.68115874420734" triggered="true" expected="1572820_8805747_19"/>
        <stop lane="4687641#2_1" parking="true" startPos="7.0244128362389375" endPos="27.024412836238938" triggered="true" expected="1572820_8805747_19"/>
        <stop lane="329694554#2_1" duration="1.0"/>
    </vehicle>
    <person id="1572820_8805747_19" type="pedestrian" depart="17711.79">
        <ride from="329694554#2" to="19899374#2" arrivalPos="106.54610264819846" lines="1572820_8805747_19_tr"/>
        <stop lane="19899374#2_0" duration="16976.614820604518" actType="P-Morning"/>
        <ride from="19899374#2" to="4320471#12" arrivalPos="30.621684726341357" lines="1572820_8805747_19_tr"/>
        <stop lane="4320471#12_0" duration="11230.11482751257" actType="S-Long"/>
        <ride from="4320471#12" to="329694554#2" arrivalPos="61.68115874420734" lines="1572820_8805747_19_tr"/>
        <stop lane="329694554#2_0" duration="1599.4658702522859" actType="Home"/>
        <ride from="329694554#2" to="4687641#2" arrivalPos="17.024412836238938" lines="1572820_8805747_19_tr"/>
        <stop lane="4687641#2_0" duration="4472.288188789851" actType="S-Short"/>
        <ride from="4687641#2" to="329694554#2" arrivalPos="61.68115874420734" lines="1572820_8805747_19_tr"/>
        <stop lane="329694554#2_0" duration="1.0" actType="Home"/>
    </person>
    <person id="9937244_1572820_31" type="pedestrian" depart="17816.21">
        <ride from="25367028#5" to="-725230629#1" arrivalPos="89.9" lines="taxi"/>
        <walk edges="20112452#1" arrivalPos="41.97032761325826"/>
        <stop lane="20112452#1_0" duration="26108.04834893317" actType="P-Day"/>
        <ride from="20112452#1" to="20112467#1" arrivalPos="40.01" lines="taxi"/>
        <walk edges="-20112467#1" arrivalPos="11.290897340868057"/>
        <stop lane="-20112467#1_0" duration="8168.290149331452" actType="S-Short"/>
        <ride from="-20112467#1" to="25367028#5" arrivalPos="16.05533303566872" lines="taxi"/>
        <stop lane="25367028#5_0" duration="1.0" actType="Home"/>
    </person>
    <person id="9937137_9937184_15" type="pedestrian" depart="18243.9">
        <walk edges="4687641#1 400116381#0 399164437 477887848#0 477887848#1 479290590 478157841 401007230#1 398557959#0 398548183#0 398548183#1 400836977#1 400836977#0 -330153470#1 330150736#0 399761122#0 399739961#1 399739961#0 477544159 477544163#0 477544163#1 992803955#1 330150435#5 330150435#6 330150435#7 19683769#3 48678911#2" arrivalPos="77.60863545041887"/>
        <stop lane="48678911#2_0" duration="27717.12933346954" actType="P-Day"/>
        <walk edges="48678911#2 48678911#3 48678911#4 48678911#5 48678911#8 399761112#1 399739969#1 48680979#1 165217827#3 165217827#4 455083993#0 455083993#2 398548183#0 398546114#0 398546114#1 401083643#1 401083643#0 401007232 401007231#1 401007231#0 399321521 477887847#0 -103521753#0 4687641#2" arrivalPos="17.298765764901624"/>
        <stop lane="4687641#2_0" duration="7721.18302371943" actType="S-Short"/>
        <walk edges="4687641#2 4687641#1" arrivalPos="12.257592766554671"/>
        <stop lane="4687641#1_0" duration="1.0" actType="Home"/>
    </person>
    <vehicle id="9948739_197561_1_tr" type="passenger" depart="triggered">
        <route edges="-165217829#1 -165217829#0 -329988460#4 -329988460#3 -329988460#1 -111771067#5 -111771067#4 -111771067#3 -111771067#2 -111771067#1 -465656094#1 -465656094#0 -111771070 -41258976#4 -41258976#3 -41258976#2 -330153471 330153472#0 330153472#1 330153472#2 465653665#1 463825906#1 463825907#1 463825907#2 337432401#0 337432401#1 337432401#3 337432401#4 337432401#5 337432401#6 231387460#0 329694558 329694559#0 329694559#1 329694559#2 329694559#3 -92352263#3 -92352263#1 -92352263#0 92352263#0 92352263#1 92352263#2 329694552#0 329694552#1 575547253#0 728796869#0 20170647#1 20170647#2 20170649#1 -20170649#1 -20170647#2 -20170647#1 728796869#2 329989224#0 329989224#1 329989224#2 453964887#0 453964892#1 455083968#1 455083976#0 41258973#1 41258973#2 41258973#4 455083980#0 455083970#1 41258971#1 103896396#1 103896396#3 103896396#5 103896396#6 103896396#8 103974914#1 673699710#4 975251637#0 975251637#1 975251637#2 111771067#1 111771067#2 111771067#3 111771067#4 111771067#5 329988460#1 -20112467#2 -20112467#1 725230629#3 -165217829#1"/>
        <stop parkingArea="1071756499" triggered="true" expected="9948739_197561_1"/>
        <stop parkingArea="443883402" triggered="true" expected="9948739_197561_1"/>
        <stop lane="-165217829#1_1" duration="1.0"/>
    </vehicle>
    <person id="9948739_197561_1" type="pedestrian" depart="18327.71">
        <ride from="-165217829#1" to="-92352263#1" arrivalPos="12.5" lines="9948739_197561_1_tr"/>
        <walk edges="-92352263#1 92352263#2 329694552#0 329694552#1 26026751#0" arrivalPos="15.245"/>
        <stop lane="26026751#0_0" duration="26871.10316100127" actType="P-Day"/>
        <walk edges="26026751#0 329694552#1 329694552#0 92352263#2 -92352263#1" arrivalPos="12.5"/>
        <ride from="-92352263#1" to="-20170649#1" arrivalPos="12.5" lines="9948739_197561_1_tr"/>
        <walk edges="-20170649#1 -20170647#2" arrivalPos="17.19"/>
        <stop lane="-20170647#2_0" duration="1335.7478030218554" actType="S-Short"/>
        <walk edges="-20170647#2 -20170649#1" arrivalPos="12.5"/>
        <ride from="-20170649#1" to="-165217829#1" arrivalPos="22.174926663460674" lines="9948739_197561_1_tr"/>
        <stop lane="-165217829#1_0" duration="1.0" actType="Home"/>
    </person>
    <vehicle id="8805747_9948739_11_tr" type="motorcycle" depart="triggered">
        <route edges="329988459#1 329988459#2 329988459#3 19899374#1 19899374#2 975251637#1 975251637#2 463676555#1 463676555#2 463676555#3 463676555#4 463677569#0 463677569#2 463677569#3 20112439#1 20112439#3 20112439#4 20112439#5 -463677230#3 -463677230#2 20112427#4 20112427#5 20112442#1 20112442#2 20112442#3 463677569#2 463677569#3 463677565#0 463677565#1 1051822951#7 1051822951#8 1051822951#9 329988459#1"/>
        <stop parkingArea="3708177733" triggered="true" expected="8805747_9948739_11"/>
        <stop lane="329988459#1_1" duration="1.0"/>
    </vehicle>
    <person id="8805747_9948739_11" type="pedestrian" depart="18967.25">
        <ride from="329988459#1" to="20112439#3" arrivalPos="13.859795942943705" lines="8805747_9948739_11_tr"/>
        <walk edges="20112439#3 20112439#1 -463677565#0" arrivalPos="33.32"/>
        <stop lane="-463677565#0_0" duration="24189.3507856941" actType="P-Day"/>
        <walk edges="-463677565#0 20112439#1 20112439#3" arrivalPos="13.859795942943705"/>
        <ride from="20112439#3" to="329988459#1" arrivalPos="16.013166893084794" lines="8805747_9948739_11_tr"/>
        <stop lane="329988459#1_0" duration="1.0" actType="Home"/>
    </person>
    <vehicle id="8805747_9937244_14_tr" type="special" depart="triggered">
        <route edges="329988459#7 329988459#8 329988459#9 455084003#1 456874546#1 456874546#2 456874546#3 673699710#1 673699710#2 673699710#4 975251637#0 975251637#1 975251637#2 111771067#1 111771067#2 111771067#3 111771067#4 111771067#5 329988459#1 329988459#2 329988459#3 19899374#1 19899374#2 975251637#1 975251637#2 463676555#1 20112449#1 454002561#0 454002561#1 1051822951#9 329988459#1 329988459#2 329988459#3 329988459#4 329988459#7"/>
        <stop lane="329988459#1_1" parking="true" startPos="56.92357566755638" endPos="76.92357566755638" triggered="true" expected="8805747_9937244_14"/>
        <stop lane="20112449#1_1" parking="true" startPos="16.30826873488991" endPos="36.30826873488991" triggered="true" expected="8805747_9937244_14"/>
        <stop lane="329988459#7_1" duration="1.0"/>
    </vehicle>
    <person id="8805747_9937244_14" type="pedestrian" depart="19128.85">
        <ride from="329988459#7" to="329988459#1" arrivalPos="66.92357566755638" lines="8805747_9937244_14_tr"/>
        <stop lane="329988459#1_0" duration="29254.880541911833" actType="P-Day"/>
        <ride from="329988459#1" to="20112449#1" arrivalPos="26.30826873488991" lines="8805747_9937244_14_tr"/>
        <stop lane="20112449#1_0" duration="277.75231237619346" actType="S-Short"/>
        <ride from="20112449#1" to="329988459#7" arrivalPos="12.424626651863019" lines="8805747_9937244_14_tr"/>
        <stop lane="329988459#7_0" duration="1.0" actType="Home"/>
    </person>
    <person id="1572820_1634158_9" type="pedestrian" depart="19557.67">
        <walk edges="41258976#1 41258973#4 41258973#2 41258973#1 477767263#4 477767263#5 477767263#6 477794910 1073073558#2 477794900#6 -37997321#1 37997321#0 -37997315#1 -37997315#2 37997315#3 331907542#0 -41691765#0 4320473#10 329694555#7 329694555#6 329694555#5 329694555#4 329694555#3 329694555#2 329694555#1 329694555#0 37852845#0 37852845#1 37852845#2 936656921 337432401#5 337432401#6" arrivalPos="43.932319094042036"/>
        <stop lane="337432401#6_0" duration="15261.510480553245" actType="P-Morning"/>
        <walk edges="337432401#6 337432401#5 337432401#4 337432401#3 337432401#1 337432401#0 463825907#2 37852830 41691766#1 454188457#0 1090296260#0 1090296260#8 463676555#7 463676555#6 -463676555#5 -463676555#4 -463676555#3 -463676555#2 -463676555#1 475354381#1 1084242811#1 -975251637#2 -975251637#1 -975251637#0 -673699710#4 481494298#0 481494294#1 -673699710#2 -673699710#1 -39442470#0 313639760" arrivalPos="27.269154495207918"/>
        <stop lane="313639760_0" duration="15945.567345766278" actType="S-Long"/>
        <walk edges="313639760 -39442470#0 -673699710#1 -673699710#2 481494294#1 481494298#0 -673699710#4 975251637#0 975251637#1 975251637#2 -465656094#1 -465656094#0 -111771070 -41258976#4 -41258976#3 41258976#1" arrivalPos="34.49397804543659"/>
        <stop lane="41258976#1_0" duration="595.9138579107907" actType="Home"/>
        <walk edges="41258976#1 41258976#3 41258976#4 111771070 465656094#0 465656094#1 475354381#1 475354377#1 475354377#2 953108141#0 953108141#1 953108141#6 953108141#7 329988460#1" arrivalPos="45.23198266409976"/>
        <stop lane="329988460#1_0" duration="5585.613372764726" actType="S-Short"/>
        <walk edges="329988460#1 953108141#7 953108141#6 953108141#1 953108141#0 475354377#2 475354377#1 475354381#1 465656094#1 465656094#0 111771070 41258976#4 41258976#3 41258976#1" arrivalPos="34.49397804543659"/>
        <stop lane="41258976#1_0" duration="1.0" actType="Home"/>
    </person>
    <vehicle id="9937137_197561_1_tr" type="bicycle" depart="triggered">
        <route edges="4320471#12 4320471#13 455083981#1 330153472#0 330153472#1 330153472#2 465653665#1 463825906#1 463825907#1 463825907#2 337432401#0 337432401#1 337432401#3 337432401#4 337432401#5 337432401#6 231387460#0 964696603#0 936656919 329694555#0 329694555#1 329694555#2 329694555#3 329694555#4 329694555#5 329694555#6 329694555#7 37997316#0 37997316#1 686625290#4 329694554#7 329694554#10 329694554#11 1042466504#1 4320471#10 4320471#11 4320471#12 4320471#13 455083981#1 330153472#0 330153472#1 330153472#2 465653665#1 463825906#1 463825907#1 463825907#2 337432401#0 337432401#1 337432401#3 337432401#4 337432401#5 337432401#6 231387460#0 964696603#0 936656919 329694555#0 329694555#1 329694555#2 329694555#3 329694555#4 329694555#5 329694555#6 329694555#7 37997316#0 37997316#1 686625290#4 329694554#7 329694554#10 329694554#11 1042466504#1 4320471#10 4320471#11 4320471#12"/>
        <stop lane="231387460#0_1" parking="true" startPos="61.849999999999994" endPos="-1.0" triggered="true" expected="9937137_197561_1"/>
        <stop lane="4320471#12_1" parking="true" startPos="23.217699379728202" endPos="43.2176993797282" triggered="true" expected="9937137_197561_1"/>
        <stop lane="231387460#0_1" parking="true" startPos="61.849999999999994" endPos="-1.0" triggered="true" expected="9937137_197561_1"/>
        <stop lane="4320471#12_1" duration="1.0"/>
    </vehicle>
    <person id="9937137_197561_1" type="pedestrian" depart="20088.14">
        <ride from="4320471#12" to="231387460#0" arrivalPos="71.85" lines="9937137_197561_1_tr"/>
        <walk edges="329694552#1" arrivalPos="15.092418988063745"/>
        <stop lane="329694552#1_0" duration="18639.25349093807" actType="P-Morning"/>
        <walk edges="329694552#1 329694552#0 329694559#3 329694559#2 329694559#1 329694559#0 329694558 231387460#0" arrivalPos="70.85"/>
        <ride from="231387460#0" to="4320471#12" arrivalPos="33.2176993797282" lines="9937137_197561_1_tr"/>
        <stop lane="4320471#12_0" duration="2621.4541318078277" actType="Home"/>
        <ride from="4320471#12" to="231387460#0" arrivalPos="71.85" lines="9937137_197561_1_tr"/>
        <walk edges="329694552#1" arrivalPos="15.092418988063745"/>
        <stop lane="329694552#1_0" duration="7520.477837237071" actType="P-Afternoon"/>
        <walk edges="329694552#1 329694552#0 329694559#3 329694559#2 329694559#1 329694559#0 329694558 231387460#0" arrivalPos="70.85"/>
        <ride from="231387460#0" to="4320471#12" arrivalPos="33.2176993797282" lines="9937137_197561_1_tr"/>
        <stop lane="4320471#12_0" duration="1.0" actType="Home"/>
    </person>
    <person id="1572820_9937244_1" type="pedestrian" depart="20098.09">
        <ride from="111771067#3" to="354710422#1" arrivalPos="42.143535433302134" lines="taxi"/>
        <stop lane="354710422#1_0" duration="12121.237925225683" actType="P-Morning"/>
        <ride from="354710422#1" to="354710423#1" arrivalPos="50.09270000736624" lines="taxi"/>
        <stop lane="354710423#1_0" duration="3238.581641519227" actType="S-Short"/>
        <ride from="354710423#1" to="354710422#1" arrivalPos="42.143535433302134" lines="taxi"/>
        <stop lane="354710422#1_0" duration="9873.20430812408" actType="P-Afternoon"/>
        <ride from="354710422#1" to="111771067#4" arrivalPos="26.454487957905023" lines="taxi"/>
        <stop lane="111771067#4_0" duration="1985.343150816486" actType="S-Short"/>
        <walk edges="111771067#4 111771067#3" arrivalPos="26.985589574943024"/>
        <stop lane="111771067#3_0" duration="1.0" actType="Home"/>
    </person>
    <vehicle id="9937184_1572820_9_tr" type="special" depart="triggered">
        <route edges="165217827#3 165217827#4 330153470#0 330153470#1 330150736#0 330150736#1 330150434#0 330150434#1 330150434#2 330150434#5 330150434#6 37997317#1 37997317#2 686625290#4 329694554#7 330150434#5 330150434#6 37997317#1 37997317#2 686625290#4 686625290#6 686625290#7 686625290#11 686625290#12 465411711#1 165217870#1 165217870#2 165217827#1 165217827#2 165217827#3"/>
        <stop lane="329694554#7_1" parking="true" startPos="28.76415635556483" endPos="48.76415635556483" triggered="true" expected="9937184_1572820_9"/>
        <stop lane="330150434#6_1" parking="true" startPos="9.754871176453598" endPos="29.754871176453598" triggered="true" expected="9937184_1572820_9"/>
        <stop lane="165217827#3_1" duration="1.0"/>
    </vehicle>
    <person id="9937184_1572820_9" type="pedestrian" depart="20143.79">
        <ride from="165217827#3" to="329694554#7" arrivalPos="38.76415635556483" lines="9937184_1572820_9_tr"/>
        <stop lane="329694554#7_0" duration="29272.932371869956" actType="P-Day"/>
        <ride from="329694554#7" to="330150434#6" arrivalPos="19.754871176453598" lines="9937184_1572820_9_tr"/>
        <stop lane="330150434#6_0" duration="9197.819224902165" actType="S-Short"/>
        <ride from="330150434#6" to="165217827#3" arrivalPos="33.18331909036051" lines="9937184_1572820_9_tr"/>
        <stop lane="165217827#3_0" duration="1.0" actType="Home"/>
    </person>
    <person id="8805747_1572820_9" type="pedestrian" depart="20275.62">
        <walk edges="20112451#1 792959186#0 347723027 454002561#0 20112449#1 463676555#1 -465656094#1 25367003#0 25367003#1" arrivalPos="10.309636212703928"/>
        <stop lane="25367003#1_0" duration="12469.856126885566" actType="P-Morning"/>
        <walk edges="25367003#1 25367003#0 465656094#0 111771070 41258976#4 41258976#3 475351847#1 475351847#0 475354379#2 475354379#1 330153472#1 330153472#2 477767263#4 477767263#5 1051530916#0" arrivalPos="15.435462736805974"/>
        <stop lane="1051530916#0_0" duration="288.83822435513275" actType="S-Short"/>
        <walk edges="1051530916#0 477767263#5 477767263#4 330153472#2 330153472#1 475354379#1 41258973#4 41258976#1 41258976#3 41258976#4 111771070 465656094#0 25367003#0 25367003#1" arrivalPos="10.309636212703928"/>
        <stop lane="25367003#1_0" duration="17607.28581385342" actType="P-Afternoon"/>
        <walk edges="25367003#1 25367003#0 -465656094#1 463676555#1 20112449#1 454002561#0 347723027 792959186#0 20112451#1" arrivalPos="45.09805192818328"/>
        <stop lane="20112451#1_0" duration="1.0" actType="Home"/>
    </person>
    <person id="9948739_9937137_3" type="pedestrian" depart="20347.61">
        <walk edges="-25367021#1 164859462 -25367021#4 1090296248 164859461 329988459#2 -19899376#4 -19899376#2 -19899376#1 975251637#2 -465656094#1 -465656094#0 -111771070 -41258976#4 -41258976#3 -41258976#2 478155231#0 478155028 478157841 401007230#1 -455083993#3 -455083993#2 -455083993#0 -165217827#4 165217827#3" arrivalPos="15.779649533262472"/>
        <stop lane="165217827#3_0" duration="24443.546466096308" actType="P-Day"/>
        <walk edges="165217827#3 165217827#4 455083993#0 455083993#2 398548183#0 398546114#0 398546114#1 475351680 475354379#0 475354379#1 41258973#4 41258976#1 41258976#3 41258976#4 111771070 465656094#0 465656094#1 975251637#2 19899376#1 19899376#2 19899376#4 329988459#2 164859461 1090296248 25367021#4 164859462 -25367021#1" arrivalPos="16.512036115014926"/>
        <stop lane="-25367021#1_0" duration="2179.7162911092814" actType="Home"/>
        <walk edges="-25367021#1 -25367021#0 19899281#0 1051147172#7 1051147172#8 1051147172#9 1051147172#10 1051147172#11 1051147172#12 1051147172#13 1051147172#14 1051147172#15 1093161752 1093161754#1 1093161751#1 1093161751#2 1073101739#0 1073101739#1 1090296251#1 1090296251#0 1073106709 481494962#0 481494291#1 481494291#0 477911581 477911580#3 477911580#2 477911580#1 477911580#0 400007622#0 400007622#1 400303148#0 41258971#1 477890304#0 477887847#2 477887847#1 477887847#0 399315909#1 399315909#0 399318543#1 399318543#0 -399320068#3 4687641#8" arrivalPos="57.438105558615995"/>
        <stop lane="4687641#8_0" duration="3581.265183107295" actType="S-Short"/>
        <walk edges="4687641#8 4687641#7 399315908#1 477890302#0 477890302#1 398788227#0 398788227#1 476967461#0 476967461#2 400303149 477904916 479285592#0 479285594#1 477911580#2 477911580#3 477911581 477911578#1 481494294#0 481494962#0 1073106709 1090296251#0 1090296251#1 1073101739#1 1073101739#0 1093161751#2 1093161751#1 1093161754#1 1093161752 1051147172#15 1051147172#14 1051147172#13 1051147172#12 1051147172#11 1051147172#10 1051147172#9 1051147172#8 1051147172#7 1051147172#6 -25367021#1" arrivalPos="16.512036115014926"/>
        <stop lane="-25367021#1_0" duration="1.0" actType="Home"/>
    </person>
    <person id="9937244_1634158_31" type="pedestrian" depart="20413.75">
        <walk edges="39442470#0 -673699710#1 -673699710#2 481494294#1 481494298#0 -673699710#4 975251637#0 975251637#1 975251637#2 -465656094#1 -465656094#0 -111771070 41258976#4 41258976#3 475351847#1 475351847#0 475354379#2 475354379#1 330153472#1 330153472#2" busStop="6010969566"/>
        <ride busStop="6010978235" lines="150-O:0" intended="pt_bus_150-O:0.35" depart="21448.0"/>
        <walk edges="337432401#6 575547253#0 329694552#1" arrivalPos="13.087312250628596"/>
        <stop lane="329694552#1_0" duration="15010.28115962436" actType="P-Morning"/>
        <walk edges="329694552#1 329694552#0 165217839#0 165217839#2 394910074#0" busStop="6010966061"/>
        <ride busStop="6010977514" lines="15-E:0" intended="pt_bus_15-E:0.61" depart="36889.0"/>
        <walk edges="329694554#2 4320473#5 4320473#4 4320473#2 48678911#4" arrivalPos="32.78682468912851"/>
        <stop lane="48678911#4_0" duration="5224.438707788616" actType="S-Short"/>
        <walk edges="48678911#4 4320473#2 330150435#6" busStop="6010981014"/>
        <ride busStop="6010965893" lines="15-O:0" intended="pt_bus_15-O:0.70" depart="42499.0"/>
        <walk edges="1042466503#1 1042466503#2 394910074#0 165217839#2 165217839#0 329694552#0 329694552#1" arrivalPos="13.087312250628596"/>
        <stop lane="329694552#1_0" duration="16147.05332877325" actType="P-Afternoon"/>
        <walk edges="329694552#1 329694552#0 165217839#0 165217839#2 394910074#0 1050419190#0 1050419190#1 1050419190#2 329694554#1 329694554#2" busStop="6010977514"/>
        <ride busStop="6010981200" lines="57-E:0" intended="pt_bus_57-E:0.98" depart="59449.0"/>
        <walk edges="455083994#1 477893921#1 478155028 479290589 477890300#1 455083970#1 41258971#1 400303148#0 400007622#1 103896396#1 477907526#0 477911580#1 477911580#2 477911580#3 477911581 481494040 481492405#0 39442470#0" arrivalPos="23.09430056015176"/>
        <stop lane="39442470#0_0" duration="1.0" actType="Home"/>
    </person>
    <vehicle id="9937137_9937244_21_tr" type="evehicle" depart="triggered">
        <route edges="546047308#1 134811810#2 134811810#5 134811810#6 103935601 103935602#0 -456874546#3 -456874546#2 -456874546#1 133806982 133806980#1 133806980#3 133806980#4 133806980#5 354710422#0 354710422#1 354710422#2 450956616#0 450956616#1 450956616#2 39442470#0 -103935602#0 -103935601 -134811810#6 -134811810#5 -134811810#3 546047309#1 546047309#2 455083984#1 455083984#2 4687641#1 4687641#2 4687641#4 4687641#7 4687641#8 329384217#2 329384217#6 329384217#8 329384217#9 455083993#0 455083993#2 455083993#3 455083994#1 455083994#3 330153471 455083980#0 455083970#1 41258971#1 546047308#0 546047308#1"/>
        <stop parkingArea="10013312095" triggered="true" expected="9937137_9937244_21"/>
        <stop parkingArea="1605686925" triggered="true" expected="9937137_9937244_21"/>
        <stop lane="-134811810#3_1" parking="true" startPos="93.34" endPos="-1.0" triggered="true" expected="9937137_9937244_21"/>
        <stop parkingArea="1192154284" triggered="true" expected="9937137_9937244_21"/>
        <stop lane="546047308#1_2" duration="1.0"/>
    </vehicle>
    <person id="9937137_9937244_21" type="pedestrian" depart="20516.97">
        <ride from="546047308#1" to="354710422#0" arrivalPos="24.1" lines="9937137_9937244_21_tr"/>
        <walk edges="354710422#0 354710422#1" arrivalPos="30.555"/>
        <stop lane="354710422#1_0" duration="20340.367969710765" actType="P-Morning"/>
        <walk edges="354710422#1 354710422#0" arrivalPos="24.1"/>
        <ride from="354710422#0" to="39442470#0" arrivalPos="82.73646204085256" lines="9937137_9937244_21_tr"/>
        <walk edges="39442470#0 -103935602#0 103935601" arrivalPos="20.295"/>
        <stop lane="103935601_0" duration="5533.506406878916" actType="S-Long"/>
        <walk edges="103935601 103935602#0 39442470#0" arrivalPos="82.73646204085256"/>
        <ride from="39442470#0" to="-134811810#3" arrivalPos="103.34" lines="9937137_9937244_21_tr"/>
        <walk edges="546047308#1" arrivalPos="39.36993003875236"/>
        <stop lane="546047308#1_0" duration="1472.3988889068946" actType="Home"/>
        <walk edges="546047308#1 477892158#0 481496496#1 -134811810#3" arrivalPos="103.34"/>
        <ride from="-134811810#3" to="455083994#1" arrivalPos="28.191460793313258" lines="9937137_9937244_21_tr"/>
        <walk edges="455083994#1 -455083994#2" arrivalPos="113.44"/>
        <stop lane="-455083994#2_0" duration="591.5958898292197" actType="S-Short"/>
        <walk edges="-455083994#2 -455083994#3 455083994#3 455083994#1" arrivalPos="28.191460793313258"/>
        <ride from="455083994#1" to="546047308#1" arrivalPos="39.36993003875236" lines="9937137_9937244_21_tr"/>
        <stop lane="546047308#1_0" duration="1.0" actType="Home"/>
    </person>
    <vehicle id="8805747_1572820_16_tr" type="evehicle" depart="triggered">
        <route edges="-20112452#1 1051822951#9 -111771067#5 -111771067#4 -111771067#3 -111771067#2 -111771067#1 -465656094#1 -465656094#0 -111771070 -41258976#4 -41258976#3 -41258976#2 -330153471 330153472#0 330153472#1 330153472#2 465653665#1 463825906#1 463825907#1 463825907#2 337432401#0 337432401#1 337432401#3 337432401#4 337432401#5 337432401#6 231387460#0 329694558 329694559#0 329694559#1 329694559#2 329694559#3 -92352263#3 -92352263#1 -92352263#0 92352263#0 92352263#1 92352263#2 329694552#0 329694552#1 575547253#0 728796869#0 728796869#2 329989224#0 329989224#1 329989224#2 453964887#0 453964892#1 455083968#1 455083976#0 41258973#1 41258973#2 41258973#4 455083980#0 455083970#1 41258971#1 103896396#1 103896396#3 103896396#5 103896396#6 103896396#8 103974914#1 673699710#4 975251637#0 975251637#1 975251637#2 463676555#1 20112449#1 454002561#0 454002561#1"/>
        <stop parkingArea="1071756499" triggered="true" expected="8805747_1572820_16"/>
        <stop lane="454002561#1_1" duration="1.0"/>
    </vehicle>
    <person id="8805747_1572820_16" type="pedestrian" depart="20924.25">
        <ride from="-20112452#1" to="-92352263#1" arrivalPos="12.5" lines="8805747_1572820_16_tr"/>
        <walk edges="-92352263#1 -92352263#3 231387459" arrivalPos="28.855"/>
        <stop lane="231387459_0" duration="33146.87728501311" actType="P-Day"/>
        <walk edges="231387459 92352263#2 -92352263#1" arrivalPos="12.5"/>
        <ride from="-92352263#1" to="454002561#1" arrivalPos="76.69" lines="8805747_1572820_16_tr"/>
        <walk edges="-20112452#1" arrivalPos="61.13547287270256"/>
        <stop lane="-20112452#1_0" duration="1.0" actType="Home"/>
    </person>
    <vehicle id="9937244_8805747_0_tr" type="special" depart="triggered">