<?xml version="1.0" encoding="UTF-8"?>

<!-- generated on 2022-11-18 19:19:42.967634 by $Id: ptlines2flows.py v1_3_1+0313-ccb31df3eb jakob.erdmann@dlr.de 2019-09-02 13:26:32 +0200 $ v1_14_1+0000-f654d7b963e
  options: 
-->

<routes xmlns:xsi="http://www.w3.org/2001/XMLSchema-instance" xsi:noNamespaceSchemaLocation="http://sumo.dlr.de/xsd/routes_file.xsd">
    <vType id="pt_bus" vClass="bus"/>
    <vType id="pt_tram" vClass="tram"/>
    <vType id="pt_train" vClass="rail"/>
    <vType id="pt_subway" vClass="rail_urban"/>
    <vType id="pt_light_rail" vClass="rail_urban"/>
    <vType id="pt_monorail" vClass="rail"/>
    <vType id="pt_trolleybus" vClass="bus"/>
    <vType id="pt_minibus" vClass="bus"/>
    <vType id="pt_share_taxi" vClass="taxi"/>
    <vType id="pt_aerialway" vClass="bus"/>
    <vType id="pt_ferry" vClass="ship"/>
    <route id="pt_bus_63-N:0" edges="-463622074#0 -463622073 -453725263#2 -453725263#1 -453725263#0" >
        <stop busStop="-6010965197" duration="20" until="49.0"/> <!-- Sherbrooke / Claremont -->
        <stop busStop="-6010978143" duration="20" until="108.0"/> <!-- Sherbrooke / de Vendôme -->
    </route>
    <route id="pt_bus_51-O:0" edges="20188675#2 20188675#3 20188675#4 20188675#5 20188675#6 20188675#7 20188675#8 463870725 463870724#0 933328174#0 933328174#2 464065123#1 47971529#0 933326512#1 454236676#1 1078495931#0 1078495931#2 47971530 47971510#0 47971510#1 116483258#1 262078425#1 464047503#1 47971512#1 47971512#2 1079007963#1 1079091087#1 1079087910#1 -20194995#2 -1082402417#0 -1082402416#0 -1082402424#0" >
        <stop busStop="4478289734" duration="20" until="41.0"/> <!-- Institut de Gériatrie (Queen-Mary/Cedar Crescent) -->
        <stop busStop="6010964212" duration="20" until="93.0"/> <!-- Queen-Mary / Roslyn -->
        <stop busStop="3171687453" duration="20" until="161.0"/> <!-- Queen-Mary / Victoria -->
    </route>
    <route id="pt_bus_124-S:0" edges="453998154#1 20184585#0 20184585#1 20184585#2" >
        <stop busStop="6010981580" duration="20" until="31.0"/> <!-- Le Boulevard / Grosvenor -->
        <stop busStop="6010969307" duration="20" until="109.0"/> <!-- Le Boulevard / Lansdowne -->
    </route>
    <route id="pt_bus_124-N:0" edges="-20184585#2 -20184585#1 -20184585#0" >
        <stop busStop="-6010973946" duration="20" until="41.0"/> <!-- Le Boulevard / Lansdowne -->
        <stop busStop="-6010972753" duration="20" until="98.0"/> <!-- Le Boulevard / Grosvenor -->
    </route>
    <route id="pt_subway_2:0" color="208,109,7" edges="-1082752884#0 1082752881 1082752884#1" >
        <stop busStop="-437811772" duration="20" until="93.0"/> <!-- Côte-Sainte-Catherine -->
        <stop busStop="6615974727" duration="20" until="162.0"/> <!-- Snowdon -->
        <stop busStop="437811806" duration="20" until="257.0"/> <!-- Villa-Maria -->
        <stop busStop="437811839" duration="20" until="301.0"/> <!-- Vendôme -->
        <stop busStop="437811884" duration="20" until="332.0"/> <!-- Place Saint-Henri -->
    </route>
    <route id="pt_bus_160-E:0" edges="48168928#3 464094038#0 464094038#1 464094038#2 464094038#3 20904782#0 20904782#1 1056541241#0 1056541241#1 1056541241#2 464094283#0 464094283#1" >
        <stop busStop="6010967431@9320785" duration="20" until="31.0"/> <!-- Vézina / Coolbrook -->
        <stop busStop="6010964193" duration="20" until="119.0"/> <!-- McLynn / Plamondon -->
    </route>
    <route id="pt_bus_129-S:0" edges="222780033#1 222780033#2 222780033#3 222780033#4 29365980#0 29365980#1 29365980#2 29365980#3 29365980#4 29365980#5 727845620#0 727845620#1 165217810 463880939#1 463880939#3 933361653#1 933360238#0 933360238#1 933360238#5" >
        <stop busStop="6010981535" duration="20" until="44.0"/> <!-- Clanranald / Isabella -->
        <stop busStop="4705344019" duration="20" until="119.0"/> <!-- Clanranald / Dupuis -->
        <stop busStop="6010978032" duration="20" until="194.0"/> <!-- Clanranald / Bourret -->
        <stop busStop="6010971381" duration="20" until="257.0"/> <!-- Bourret / Coolbrook -->
        <stop busStop="6010972182" duration="20" until="368.0"/> <!-- Côte-Sainte-Catherine / de Westbury -->
        <stop busStop="6010975367" duration="20" until="409.0"/> <!-- Côte-Sainte-Catherine / Lemieux -->
    </route>
    <route id="pt_bus_129-N:0" edges="-933360238#9 -933360238#6 -933360238#2 -933360238#0 -933361653#1 -463880939#3 -463880939#2 -176210474 727845622#1 727845622#2 727845622#4 727845622#5 20900075#1 20900075#2 20900075#3 20900075#4 453957879#0 453957879#1 453957879#2 -310997843#2 222780033#1 222780033#2 222780033#3 222780033#4 29365980#0 29365980#1" >
        <stop busStop="-6010976759" duration="20" until="46.0"/> <!-- Côte-Sainte-Catherine / Lemieux -->
        <stop busStop="-6010964556" duration="20" until="104.0"/> <!-- Côte-Sainte-Catherine / de Westbury -->
        <stop busStop="6010978234" duration="20" until="264.0"/> <!-- Earnscliffe / Dupuis -->
        <stop busStop="6010981535" duration="20" until="364.0"/> <!-- Clanranald / Isabella -->
        <stop busStop="4705344019" duration="20" until="432.0"/> <!-- Clanranald / Dupuis -->
        <stop busStop="6010978032" duration="20" until="506.0"/> <!-- Clanranald / Bourret -->
    </route>
    <route id="pt_bus_36-O:0" edges="-450117494#5 -450117494#4 -450117494#3 -450117494#1" >
        <stop busStop="-6010975976" duration="20" until="43.0"/> <!-- Côte-Saint-Paul / Sainte-Marie -->
        <stop busStop="-6010975612" duration="20" until="92.0"/> <!-- Côte-Saint-Paul / Saint-Ambroise -->
    </route>
    <route id="pt_bus_24-O:0" edges="-474838162 -1010236636#3 -474838163#2 -474838163#0 -453741481 -453727318 -468774195 -453727319#5 -453727319#4 -453727319#3 -453727319#2 -453727319#1 -453727319#0 -453725261 -463622074#1 -463622074#0 -463622073 -453725263#2 -453725263#1 -453725263#0" >
        <stop busStop="-6010964261" duration="20" until="31.0"/> <!-- Sherbrooke / Kitchener -->
        <stop busStop="-6010970596" duration="20" until="75.0"/> <!-- Sherbrooke / Redfern -->
        <stop busStop="-1071760807" duration="20" until="133.0"/> <!-- Sherbrooke / Metcalfe -->
        <stop busStop="-6010963032" duration="20" until="205.0"/> <!-- Sherbrooke / Strathcona -->
        <stop busStop="-6010968386" duration="20" until="287.0"/> <!-- Sherbrooke / Lansdowne -->
        <stop busStop="-6010978265" duration="20" until="374.0"/> <!-- Sherbrooke / Victoria -->
        <stop busStop="-6010965197" duration="20" until="449.0"/> <!-- Sherbrooke / Claremont -->
        <stop busStop="-6010978143" duration="20" until="530.0"/> <!-- Sherbrooke / de Vendôme -->
    </route>
    <route id="pt_bus_138-O:0" edges="-474838162 -1010236636#3 -474838163#2 -474838163#0 -453741481 -453727318 -468774195 -453727319#5 -453727319#4 -453727319#3 -453727319#2 -453727319#1 -453727319#0" >
        <stop busStop="-6010964261" duration="20" until="31.0"/> <!-- Sherbrooke / Kitchener -->
        <stop busStop="-6010970596" duration="20" until="73.0"/> <!-- Sherbrooke / Redfern -->
        <stop busStop="-1071760807" duration="20" until="131.0"/> <!-- Sherbrooke / Metcalfe -->
        <stop busStop="-6010963032" duration="20" until="203.0"/> <!-- Sherbrooke / Strathcona -->
        <stop busStop="-6010968386" duration="20" until="281.0"/> <!-- Sherbrooke / Lansdowne -->
    </route>
    <route id="pt_bus_63-S:0" edges="222780033#2 -475050568#0 -747435020 453957879#0 453957879#1 453957879#2 310997844#1 453957882#1 1082410535 933080054#1 933080054#2 933080054#4 933080054#5 933080053#0 933080053#2 464063733 301860779#0 301860779#1 933080052#0 933080052#4 933080052#5 301860778#1 24221229 20572236 1078016846 25850472 932898989 574120989 1080733553#0 68520852 165215476#0 1078020881#1 454309327#1 453725263#0 453725263#1 453725263#2 463622073" >
        <stop busStop="4705344019" duration="20" until="53.0"/> <!-- Clanranald / Dupuis -->
        <stop busStop="6010978234" duration="20" until="112.0"/> <!-- Earnscliffe / Dupuis -->
        <stop busStop="6010972702" duration="20" until="442.0"/> <!-- Sherbrooke / de Vendôme -->
        <stop busStop="6010977374" duration="20" until="533.0"/> <!-- Sherbrooke / Claremont -->
    </route>
    <route id="pt_subway_2:1" color="208,109,7" edges="1082752884#1 -1082752886 -1082752884#0 1082752881" >
        <stop busStop="437811884" duration="20" until="70.0"/> <!-- Place Saint-Henri -->
        <stop busStop="437811839" duration="20" until="101.0"/> <!-- Vendôme -->
        <stop busStop="-437811806" duration="20" until="147.0"/> <!-- Villa-Maria -->
        <stop busStop="-6615974727" duration="20" until="233.0"/> <!-- Snowdon -->
        <stop busStop="437811772" duration="20" until="264.0"/> <!-- Côte-Sainte-Catherine -->
    </route>
    <route id="pt_subway_5:0" color="52,101,180" edges="1075356857" >
        <stop busStop="213613384" duration="20" until="31.0"/> <!-- Snowdon -->
        <stop busStop="213481727" duration="20" until="77.0"/> <!-- Côte-des-Neiges -->
        <stop busStop="29482323" duration="20" until="108.0"/> <!-- Université-de-Montréal -->
        <stop busStop="213656965" duration="20" until="139.0"/> <!-- Édouard-Montpetit -->
        <stop busStop="6975099127" duration="20" until="170.0"/> <!-- Outremont -->
        <stop busStop="214042695" duration="20" until="201.0"/> <!-- Acadie -->
        <stop busStop="214052252" duration="20" until="232.0"/> <!-- Parc -->
        <stop busStop="214052255" duration="20" until="263.0"/> <!-- De Castelnau -->
        <stop busStop="5228487329" duration="20" until="294.0"/> <!-- Jean-Talon -->
        <stop busStop="214052275" duration="20" until="325.0"/> <!-- Fabre -->
        <stop busStop="214052280" duration="20" until="356.0"/> <!-- D’Iberville -->
        <stop busStop="218271645" duration="20" until="387.0"/> <!-- Saint-Michel -->
    </route>
    <route id="pt_bus_90-O:0" edges="422633541#0 422633541#2 422633541#3 422633541#4 422633541#5 422633541#6 422633541#8 1078004770 48431524#1 48431535#0 165215460#1 165215460#2 35160110#3 35160110#4 475308636 199124593#0 199124593#1 199124593#2 199124593#3 199124593#4 1041723427#1 1052143868#0" >
        <stop busStop="6010972088" duration="20" until="38.0"/> <!-- Sainte-Catherine / Park -->
        <stop busStop="6010976237" duration="20" until="122.0"/> <!-- Sainte-Catherine / Lansdowne -->
        <stop busStop="6010977600" duration="20" until="183.0"/> <!-- Sainte-Catherine / Victoria -->
    </route>
    <route id="pt_bus_104-O:0" edges="-474838162 -1010236636#3 -474838163#2 -474838163#0 -453741481 -453727318 -468774195 -453727319#5 -453727319#4 -453727319#3 -453727319#2 -453727319#1 -453727319#0 -453725261 -463622074#1 -463622074#0 165217773#0 165217773#1 165217773#2 165217773#3 475308635 199124593#0 199124593#1 199124593#2 199124593#3 199124593#4 608430715#1" >
        <stop busStop="-6010964261" duration="20" until="31.0"/> <!-- Sherbrooke / Kitchener -->
        <stop busStop="-6010970596" duration="20" until="74.0"/> <!-- Sherbrooke / Redfern -->
        <stop busStop="-1071760807" duration="20" until="131.0"/> <!-- Sherbrooke / Metcalfe -->
        <stop busStop="-6010963032" duration="20" until="196.0"/> <!-- Sherbrooke / Strathcona -->
        <stop busStop="-6010968386" duration="20" until="270.0"/> <!-- Sherbrooke / Lansdowne -->
        <stop busStop="-6010978265" duration="20" until="367.0"/> <!-- Sherbrooke / Victoria -->
        <stop busStop="6010970139" duration="20" until="444.0"/> <!-- Claremont / Winchester -->
    </route>
    <route id="pt_bus_162-E:0" edges="-463844969#1 -463844969#0 -463844968 -463844971 -463864074#5 -463864074#4 -463864074#2 -463864074#1 -463864075#2 -463864075#0 -463864541#2 -463864541#1 -463864541#0 -463864539 -463864590 -463864591 -463864756 -933008493#2" >
        <stop busStop="-6010964901" duration="20" until="44.0"/> <!-- de Monkland / Madison -->
        <stop busStop="-6010969511" duration="20" until="96.0"/> <!-- de Monkland / Grand Boulevard -->
        <stop busStop="-4380897966" duration="20" until="150.0"/> <!-- de Monkland / Hingston -->
        <stop busStop="-5527782063" duration="20" until="203.0"/> <!-- de Monkland / Royal -->
        <stop busStop="-3324368265" duration="20" until="259.0"/> <!-- de Monkland / de Melrose -->
        <stop busStop="-3324368266" duration="20" until="311.0"/> <!-- de Monkland / Harvard -->
        <stop busStop="-4051678441" duration="20" until="379.0"/> <!-- de Monkland / Marcil -->
        <stop busStop="-2484400447" duration="20" until="431.0"/> <!-- de Monkland / Girouard -->
    </route>
    <route id="pt_bus_166-N:0" edges="20188675#2 20188675#3 20188675#4 20188675#5 20188675#6 20188675#7 20188675#8 463870725 463870724#0 933328174#0 933328174#2 464065123#1 47971529#0 933326512#1 454236676#1 1078495931#0 1078495931#2 932876497#0 932876497#1 -176210468 -176210472#2 -48114960 -1082413680#1 -453957882#1 -310997844#1 -310997843#2 222780033#1 222780033#2 222780033#3 222780033#4" >
        <stop busStop="4478289734" duration="20" until="41.0"/> <!-- Institut de Gériatrie (Queen-Mary/Cedar Crescent) -->
        <stop busStop="6010964212" duration="20" until="93.0"/> <!-- Queen-Mary / Roslyn -->
        <stop busStop="3171687453" duration="20" until="147.0"/> <!-- Queen-Mary / Victoria -->
        <stop busStop="4705344019" duration="20" until="400.0"/> <!-- Clanranald / Dupuis -->
        <stop busStop="6010978032" duration="20" until="473.0"/> <!-- Clanranald / Bourret -->
    </route>
    <route id="pt_bus_102-E:0" edges="-1079644682#2 -1079644682#0 -1082404464#9 -1082404464#8 -1082404464#6 -1082404464#5 -1082404464#4 -1082404464#3 -1082404464#2 -1082404464#1 -159034396#0 -165214768#12 -165214768#11 -165214768#10 -165214768#9 -165214768#8 -165214768#7 -165214768#6 -165214768#5 -165214768#4 -165214768#3 -165214768#2 -165214768#1 -165214768#0 -453506595#2 453506593#0 453506593#1 453506593#3 453506593#4 453506593#5 453506593#6 453506593#7 453506593#8 1079002508 165215466#0 48114762#1 48114762#2 48114760#1 1078495929#0 301860778#1 24221229 20572236 1078016847 176209979 931225589 -931456928 165215464#0 165215464#1 931456962#0 931456962#1 931456962#2 -931538626#1 455042512#0 931538628 337617559 931538633 931538631 -416430749#2 -416430749#0 -455042507#1 -455042507#0" >
        <stop busStop="-3152550118" duration="20" until="42.0"/> <!-- Somerled / Cavendish -->
        <stop busStop="-6010966388" duration="20" until="99.0"/> <!-- Somerled / Borden -->
        <stop busStop="-6010973675" duration="20" until="162.0"/> <!-- Somerled / Madison -->
        <stop busStop="-4367816203" duration="20" until="220.0"/> <!-- Somerled / Grand Boulevard -->
        <stop busStop="-6010968656" duration="20" until="301.0"/> <!-- Somerled / Hampton -->
        <stop busStop="-6010981256" duration="20" until="365.0"/> <!-- Somerled / Draper -->
        <stop busStop="-6010967463" duration="20" until="425.0"/> <!-- Somerled / Wilson -->
        <stop busStop="-6010965230" duration="20" until="492.0"/> <!-- Somerled / Côte-Saint-Luc -->
        <stop busStop="-5106483237@9320654" duration="20" until="769.0"/> <!-- Station Vendôme -->
    </route>
    <route id="pt_bus_66-S:0" edges="165214084#0 165214084#1 1079006201#1 1078995446#1 1078997574#1 1079005459#2 1078997586#1 1078997583#1 48114747#0 48114747#2 48114747#4 48114747#5 1079052738#1 1079052738#3 1079052738#5 1079052738#6 1079052738#7 1079052738#8 1079052721#0 1079052721#1 1082079445#1 1082079445#3 1082079445#4 1082079445#5 1079052705#0 1079052705#1 1079052705#2 1079052705#3 1079052705#4 1079052705#8 1079052705#10 1079052705#11 1079052705#12 1079052705#13 453506594#2 453506594#4 453506593#0 453506593#1 453506593#3 453506593#4 453506593#5 453506593#6 453506593#7 453506593#8 1079002508 165215466#0 48114762#1 48114762#2 48114760#1 1078495929#0 115413029 48114766#1 48114766#2 52638659#0 52638659#1 52638659#2 52638659#4 52638659#6 52638659#12 453998154#1 20184585#0 20184585#1 20184585#2 20184585#3 20184585#4 20184585#5 20184585#6 20184585#8 825948056#0 825948056#1 825948056#2 825948056#3 825948056#4 825948056#5 453749090 453749091#0 453749091#1" >
        <stop busStop="6010980844" duration="20" until="31.0"/> <!-- Walkley / Côte-Saint-Luc -->
        <stop busStop="6010981580" duration="20" until="438.0"/> <!-- Le Boulevard / Grosvenor -->
        <stop busStop="6010969307" duration="20" until="501.0"/> <!-- Le Boulevard / Lansdowne -->
        <stop busStop="6010972169" duration="20" until="555.0"/> <!-- Le Boulevard / Belmont -->
        <stop busStop="6010970013" duration="20" until="607.0"/> <!-- Le Boulevard / Renfrew -->
        <stop busStop="6010981522" duration="20" until="667.0"/> <!-- Le Boulevard / Sydenham -->
        <stop busStop="6010974317" duration="20" until="760.0"/> <!-- The Boulevard / Westmount -->
        <stop busStop="6010965426" duration="20" until="831.0"/> <!-- Le Boulevard / Clarke -->
        <stop busStop="6010966420" duration="20" until="888.0"/> <!-- Le Boulevard / Mount-Pleasant -->
    </route>
    <route id="pt_bus_105-O:0" edges="1052143868#1 1052143868#1 931538637 932899016 1080986796 1081022907 1081022964#0 1081022982 1081022995 1081022995" >
        <stop busStop="5764418474" duration="20" until="31.0"/> <!-- Station Vendôme -->
    </route>
    <route id="pt_bus_161-O:0" edges="933370543#0 933370543#1 -933370543#1 -933370543#0 -933376047#1 -449819599#1 -464076796#3 -464076796#2 -464076796#0 -176210451 933370541#1 20904784#1 20904784#2 464071096#3 454014493#0 454014493#1 454014493#2 454014493#3 933370541#1 933370541#2 933370541#3 -29365980#6 -29365980#4 -29365980#3 -29365980#2 -29365980#1 -29365980#0 231491329#0 231491329#1 454014494 1056541243#1 1056541243#2 1056541243#3 -29365980#0 -727845621 -29365804#1 1082412879#3 199260849 453293298 454014494 1056541243#1 1056541243#2 1056541243#3 -29365980#0 -727845621 -29365804#1 1082412879#3 199260849" >
        <stop busStop="6010968845" duration="20" until="36.0"/> <!-- Van Horne / de Westbury -->
        <stop busStop="6010980536" duration="20" until="191.0"/> <!-- Van Horne / Coolbrook -->
        <stop busStop="6010973766" duration="20" until="404.0"/> <!-- Van Horne / Clanranald -->
        <stop busStop="6010981173" duration="20" until="564.0"/> <!-- Van Horne / Macdonald -->
        <stop busStop="6010980477" duration="20" until="736.0"/> <!-- Fleet / Finchley -->
    </route>
    <route id="pt_subway_5:1" color="52,101,180" edges="1075356857 -66092957" >
        <stop busStop="218271645" duration="20" until="42.0"/> <!-- Saint-Michel -->
        <stop busStop="214052280" duration="20" until="73.0"/> <!-- D’Iberville -->
        <stop busStop="214052275" duration="20" until="104.0"/> <!-- Fabre -->
        <stop busStop="5228487329" duration="20" until="135.0"/> <!-- Jean-Talon -->
        <stop busStop="214052255" duration="20" until="166.0"/> <!-- De Castelnau -->
        <stop busStop="214052252" duration="20" until="197.0"/> <!-- Parc -->
        <stop busStop="214042695" duration="20" until="228.0"/> <!-- Acadie -->
        <stop busStop="6975099127" duration="20" until="259.0"/> <!-- Outremont -->
        <stop busStop="213656965" duration="20" until="290.0"/> <!-- Édouard-Montpetit -->
        <stop busStop="29482323" duration="20" until="321.0"/> <!-- Université-de-Montréal -->
        <stop busStop="213481727" duration="20" until="352.0"/> <!-- Côte-des-Neiges -->
        <stop busStop="-213613384" duration="20" until="395.0"/> <!-- Snowdon -->
    </route>
    <route id="pt_bus_37-S:0" edges="1052143868#0 1052143868#0 932667770 932667770" >
        <stop busStop="6010969505" duration="20" until="31.0"/> <!-- Station Vendôme -->
    </route>
    <route id="pt_bus_102-O:0" edges="1052143868#1 608435180#1 455042507#0 455042507#1 416430749#0 416430749#1 931538625 931538636 931538629#1 931538626#0 316470333#0 316470333#1 -1078020881#2 -165215476#0 1016857588#1 1078016843 20572234 24221195 1078495923#0 1078495923#1 1078495924#0 115413031 52638658#1 52638658#2 463878819#1 463878820#1 463878820#2 -453506593#9 -453506593#7 -453506593#6 -453506593#5 -453506593#4 -453506593#3 -453506593#2 -453506593#0 453506595#1 165214768#0 165214768#1 165214768#2 165214768#3 165214768#4 165214768#5 165214768#6 165214768#7 165214768#8 165214768#9 165214768#10 165214768#11 165214768#12 159034396#0 1082404464#1 1082404464#2 1082404464#3 1082404464#4 1082404464#5 1082404464#6 1082404464#7" >
        <stop busStop="6010973607" duration="20" until="31.0"/> <!-- Station Vendôme -->
        <stop busStop="6010978168" duration="20" until="480.0"/> <!-- Somerled / Oxford -->
        <stop busStop="6010972601" duration="20" until="543.0"/> <!-- Somerled / Wilson -->
        <stop busStop="6010971165" duration="20" until="601.0"/> <!-- Somerled / Draper -->
        <stop busStop="6010973167" duration="20" until="676.0"/> <!-- Somerled / Hingston -->
        <stop busStop="4367816207" duration="20" until="736.0"/> <!-- Somerled / Grand Boulevard -->
        <stop busStop="6010980116" duration="20" until="810.0"/> <!-- Somerled / Madison -->
        <stop busStop="6010971827" duration="20" until="874.0"/> <!-- Somerled / Borden -->
        <stop busStop="3152550117" duration="20" until="929.0"/> <!-- Somerled / Cavendish -->
    </route>
    <route id="pt_bus_191-O:0" edges="409382666#1 409382666#1 932489404#1 932489408#1 932489408#1" >
        <stop busStop="6010968201" duration="20" until="42.0"/> <!-- Notre-Dame / de Carillon -->
    </route>
    <route id="pt_bus_66-N:0" edges="-453749091#1 -453749091#0 -453749090 -825948056#5 -825948056#4 -825948056#3 -825948056#2 -825948056#1 -825948056#0 -20184585#8 -20184585#6 -20184585#5 -20184585#4 -20184585#3 -20184585#2 -20184585#1 -20184585#0 -453998154#2 -52638659#14 -52638659#7 -52638659#5 -52638659#3 -52638659#1 -52638659#0 48114734 1078495927#1 1078495928#0 115413031 52638658#1 52638658#2 463878819#1 463878820#1 463878820#2 -453506593#9 -453506593#7 -453506593#6 -453506593#5 -453506593#4 -453506593#3 -453506593#2 -453506593#0 -453506594#4 -453506594#3 -1079052705#13 -1079052705#12 -1079052705#11 -1079052705#10 -1079052705#9 -1079052705#5 -1079052705#3 -1079052705#2 -1079052705#1 -1079052705#0 -1082079445#5 -1082079445#4 -1082079445#3 -1082079445#2 -1079052721#3 -1079052721#0 -1079052738#9 -1079052738#7 -1079052738#6 -1079052738#5 -1079052738#3 -1079052738#2 -48114747#6 -48114747#4 -48114747#2 -48114747#1 1079002496#1 1078997582#1 1051531395#0 1051531395#1 1051531395#2 1051531395#3 1051531395#4 1079544582#1 1079544582#3 1079544582#4 1051531397#0" >
        <stop busStop="-6010979094" duration="20" until="40.0"/> <!-- Le Boulevard / Mount-Pleasant -->
        <stop busStop="-6010970368" duration="20" until="122.0"/> <!-- Le Boulevard / Clarke -->
        <stop busStop="-6010966191" duration="20" until="200.0"/> <!-- The Boulevard / Westmount -->
        <stop busStop="-6010969149" duration="20" until="273.0"/> <!-- Le Boulevard / Edgehill -->
        <stop busStop="-6010971103" duration="20" until="341.0"/> <!-- Le Boulevard / Renfrew -->
        <stop busStop="-6010978009" duration="20" until="399.0"/> <!-- Le Boulevard / Belmont -->
        <stop busStop="-6010973946" duration="20" until="459.0"/> <!-- Le Boulevard / Lansdowne -->
        <stop busStop="-6010972753" duration="20" until="528.0"/> <!-- Le Boulevard / Grosvenor -->
        <stop busStop="-6010980487" duration="20" until="576.0"/> <!-- Le Boulevard / Victoria -->
        <stop busStop="6010971309" duration="20" until="939.0"/> <!-- Randall / Chester -->
        <stop busStop="6010967408" duration="20" until="1005.0"/> <!-- Chester / Cavendish -->
        <stop busStop="6010973413" duration="20" until="1076.0"/> <!-- Chester / Walkley -->
        <stop busStop="6010980844@9320535" duration="20" until="1137.0"/> <!-- Walkley / Côte-Saint-Luc -->
    </route>
    <route id="pt_bus_17-N:0" edges="932669866#0 932669866#0 932667757 931538637 931538637 932899016 933008471 933008479#1 933008459 933008463#1 933083888 933083897#3 933076525 933080017 933080025#1 933326513 933326550#2 933360258 933370516 933370519#1 933376026 933381115 933381115" >
        <stop busStop="6010978709" duration="20" until="40.0"/> <!-- Saint-Antoine / De Courcelle -->
    </route>
    <flow id="pt_bus_63-N:0" type="pt_bus" route="pt_bus_63-N:0" begin="139.0" end="86539.0" period="600" line="63-N:0" >
        <param key="name" value="Bus 63 : Girouard Nord"/>
        <param key="completeness" value="0.50"/>
    </flow>
    <flow id="pt_bus_51-O:0" type="pt_bus" route="pt_bus_51-O:0" begin="15.0" end="86415.0" period="600" line="51-O:0" >
        <param key="name" value="Bus 51 : Édouard-Montpetit Ouest"/>
        <param key="completeness" value="0.30"/>
    </flow>
    <flow id="pt_bus_124-S:0" type="pt_bus" route="pt_bus_124-S:0" begin="353.0" end="86753.0" period="600" line="124-S:0" >
        <param key="name" value="Bus 124 : Victoria Sud"/>
        <param key="completeness" value="0.05"/>
    </flow>
    <flow id="pt_bus_124-N:0" type="pt_bus" route="pt_bus_124-N:0" begin="362.0" end="86762.0" period="600" line="124-N:0" >
        <param key="name" value="Bus 124 : Victoria Nord"/>
        <param key="completeness" value="0.05"/>
    </flow>
    <flow id="pt_subway_2:0" type="pt_subway" route="pt_subway_2:0" begin="17.0" end="86417.0" period="600" line="2:0" >
        <param key="name" value="Ligne orange vers Montmorency"/>
        <param key="completeness" value="0.16"/>
    </flow>
    <flow id="pt_bus_160-E:0" type="pt_bus" route="pt_bus_160-E:0" begin="389.0" end="86789.0" period="600" line="160-E:0" >
        <param key="name" value="Bus 160 : Barclay Est"/>
        <param key="completeness" value="0.10"/>
    </flow>
    <flow id="pt_bus_129-S:0" type="pt_bus" route="pt_bus_129-S:0" begin="132.0" end="86532.0" period="600" line="129-S:0" >
        <param key="name" value="Bus 129 : Côte-Sainte-Catherine Sud"/>
        <param key="completeness" value="0.19"/>
    </flow>
    <flow id="pt_bus_129-N:0" type="pt_bus" route="pt_bus_129-N:0" begin="47.0" end="86447.0" period="600" line="129-N:0" >
        <param key="name" value="Bus 129 : Côte-Sainte-Catherine Nord"/>
        <param key="completeness" value="0.24"/>
    </flow>
    <flow id="pt_bus_36-O:0" type="pt_bus" route="pt_bus_36-O:0" begin="535.0" end="86935.0" period="600" line="36-O:0" >
        <param key="name" value="Bus 36 : Monk Ouest"/>
        <param key="completeness" value="0.05"/>
    </flow>
    <flow id="pt_bus_24-O:0" type="pt_bus" route="pt_bus_24-O:0" begin="119.0" end="86519.0" period="600" line="24-O:0" >
        <param key="name" value="Bus 24 : Sherbrooke"/>
        <param key="completeness" value="0.26"/>
    </flow>
    <flow id="pt_bus_138-O:0" type="pt_bus" route="pt_bus_138-O:0" begin="381.0" end="86781.0" period="600" line="138-O:0" >
        <param key="name" value="Bus 138 : Notre-Dame-de-Grâce Ouest"/>
        <param key="completeness" value="0.27"/>
    </flow>
    <flow id="pt_bus_63-S:0" type="pt_bus" route="pt_bus_63-S:0" begin="160.0" end="86560.0" period="600" line="63-S:0" >
        <param key="name" value="Bus 63 : Girouard Sud"/>
        <param key="completeness" value="0.56"/>
    </flow>
    <flow id="pt_subway_2:1" type="pt_subway" route="pt_subway_2:1" begin="467.0" end="86867.0" period="600" line="2:1" >
        <param key="name" value="Ligne orange vers Côte-Vertu"/>
        <param key="completeness" value="0.16"/>
    </flow>
    <flow id="pt_subway_5:0" type="pt_subway" route="pt_subway_5:0" begin="27.0" end="86427.0" period="600" line="5:0" >
        <param key="name" value="Ligne bleue vers Saint-Michel"/>
        <param key="completeness" value="1.00"/>
    </flow>
    <flow id="pt_bus_90-O:0" type="pt_bus" route="pt_bus_90-O:0" begin="222.0" end="86622.0" period="600" line="90-O:0" >
        <param key="name" value="Bus 90 : Saint-Jacques Ouest"/>
        <param key="completeness" value="0.15"/>
    </flow>
    <flow id="pt_bus_104-O:0" type="pt_bus" route="pt_bus_104-O:0" begin="331.0" end="86731.0" period="600" line="104-O:0" >
        <param key="name" value="Bus 104 : Cavendish Ouest"/>
        <param key="completeness" value="0.27"/>
    </flow>
    <flow id="pt_bus_162-E:0" type="pt_bus" route="pt_bus_162-E:0" begin="437.0" end="86837.0" period="600" line="162-E:0" >
        <param key="name" value="Bus 162 : Westminster Est"/>
        <param key="completeness" value="0.24"/>
    </flow>
    <flow id="pt_bus_166-N:0" type="pt_bus" route="pt_bus_166-N:0" begin="441.0" end="86841.0" period="600" line="166-N:0" >
        <param key="name" value="Bus 166 : Queen-Mary Nord"/>
        <param key="completeness" value="0.25"/>
    </flow>
    <flow id="pt_bus_102-E:0" type="pt_bus" route="pt_bus_102-E:0" begin="253.0" end="86653.0" period="600" line="102-E:0" >
        <param key="name" value="Bus 102 : Somerled Est"/>
        <param key="completeness" value="0.64"/>
    </flow>
    <flow id="pt_bus_66-S:0" type="pt_bus" route="pt_bus_66-S:0" begin="165.0" end="86565.0" period="600" line="66-S:0" >
        <param key="name" value="Bus 66 : Le Boulevard Sud"/>
        <param key="completeness" value="0.64"/>
    </flow>
    <flow id="pt_bus_105-O:0" type="pt_bus" route="pt_bus_105-O:0" begin="131.0" end="86531.0" period="600" line="105-O:0" >
        <param key="name" value="Bus 105 : Sherbrooke Ouest"/>
        <param key="completeness" value="0.42"/>
    </flow>
    <flow id="pt_bus_161-O:0" type="pt_bus" route="pt_bus_161-O:0" begin="418.0" end="86818.0" period="600" line="161-O:0" >
        <param key="name" value="Bus 161 : Van Horne Ouest"/>
        <param key="completeness" value="0.12"/>
    </flow>
    <flow id="pt_subway_5:1" type="pt_subway" route="pt_subway_5:1" begin="771.0" end="87171.0" period="600" line="5:1" >
        <param key="name" value="Ligne bleue vers Snowdon"/>
        <param key="completeness" value="1.00"/>
    </flow>