<?xml version="1.0" encoding="UTF-8"?>

<!-- generated on 2022-09-25 14:38:11.901293 by socket_server.py v1_14_1+0000-f654d7b963e
<configuration>
    <min-capacity-visibility-true value="50"/>
    <max-distance-alternatives value="1000.0"/>
    <max-distance-visibility-true value="1000.0"/>
    <output value="osm_parking_rerouters.add.xml"/>
    <parking-areas value="osm_complete_parking_areas.add.xml"/>
    <sumo-net value="osm.net.xml"/>
    <tqdm value="True"/>
</configuration>
-->

<additional xmlns:xsi="http://www.w3.org/2001/XMLSchema-instance" xsi:noNamespaceSchemaLocation="http://sumo.dlr.de/xsd/additional_file.xsd">

    <rerouter id="10011497859" edges="-607184015#5">
        <interval begin="0.0" end="86400">
            <!-- in order of distance --> 
            <parkingAreaReroute id="10011497859" visible="true"/> <!-- dist: 0.0 -->
            <parkingAreaReroute id="425463618" visible="true"/> <!-- dist: 215.1 -->
            <parkingAreaReroute id="9842754398" visible="true"/> <!-- dist: 215.1 -->
            <parkingAreaReroute id="9842754403" visible="true"/> <!-- dist: 215.1 -->
            <parkingAreaReroute id="9901889709" visible="true"/> <!-- dist: 331.1 -->
            <parkingAreaReroute id="9901889710" visible="true"/> <!-- dist: 331.1 -->
            <parkingAreaReroute id="9928255966" visible="true"/> <!-- dist: 392.4 -->
            <parkingAreaReroute id="10011893284" visible="true"/> <!-- dist: 414.3 -->
            <parkingAreaReroute id="425463616" visible="true"/> <!-- dist: 419.6 -->
            <parkingAreaReroute id="10011497903" visible="true"/> <!-- dist: 423.6 -->
            <parkingAreaReroute id="9901899610" visible="true"/> <!-- dist: 424.0 -->
        </interval>
    </rerouter>

    <rerouter id="10011497903" edges="25367021#1">
        <interval begin="0.0" end="86400">
            <!-- in order of distance --> 
            <parkingAreaReroute id="10011497903" visible="true"/> <!-- dist: 0.0 -->
            <parkingAreaReroute id="10015789474" visible="true"/> <!-- dist: 169.5 -->
            <parkingAreaReroute id="10015789472" visible="true"/> <!-- dist: 268.0 -->
            <parkingAreaReroute id="10011497859" visible="true"/> <!-- dist: 363.4 -->
            <parkingAreaReroute id="9901868796" visible="true"/> <!-- dist: 457.3 -->
            <parkingAreaReroute id="9901889709" visible="true"/> <!-- dist: 506.7 -->
            <parkingAreaReroute id="9901889710" visible="true"/> <!-- dist: 506.7 -->
            <parkingAreaReroute id="10011893284" visible="true"/> <!-- dist: 560.5 -->
            <parkingAreaReroute id="425463618" visible="true"/> <!-- dist: 588.4 -->
            <parkingAreaReroute id="9842754398" visible="true"/> <!-- dist: 588.4 -->
            <parkingAreaReroute id="9842754403" visible="true"/> <!-- dist: 588.4 -->
        </interval>
    </rerouter>

    <rerouter id="10011893284" edges="1092666574#1">
        <interval begin="0.0" end="86400">
            <!-- in order of distance --> 
            <parkingAreaReroute id="10011893284" visible="true"/> <!-- dist: 0.0 -->
            <parkingAreaReroute id="10015789474" visible="true"/> <!-- dist: 718.2 -->
            <parkingAreaReroute id="10011497859" visible="true"/> <!-- dist: 793.4 -->
            <parkingAreaReroute id="5411251469" visible="true"/> <!-- dist: 796.6 -->
            <parkingAreaReroute id="10011497903" visible="true"/> <!-- dist: 822.1 -->
            <parkingAreaReroute id="10015789472" visible="true"/> <!-- dist: 825.3 -->
            <parkingAreaReroute id="5865950489" visible="true"/> <!-- dist: 872.3 -->
            <parkingAreaReroute id="9901722408" visible="true"/> <!-- dist: 887.2 -->
            <parkingAreaReroute id="3478569128" visible="true"/> <!-- dist: 921.5 -->
            <parkingAreaReroute id="9901889709" visible="true"/> <!-- dist: 936.7 -->
            <parkingAreaReroute id="9901889710" visible="true"/> <!-- dist: 936.7 -->
        </interval>
    </rerouter>

    <rerouter id="10013312095" edges="354710422#0">
        <interval begin="0.0" end="86400">
            <!-- in order of distance --> 
            <parkingAreaReroute id="10013312095" visible="true"/> <!-- dist: 0.0 -->
            <parkingAreaReroute id="9928255966" visible="true"/> <!-- dist: 131.8 -->
            <parkingAreaReroute id="1605686925" visible="true"/> <!-- dist: 276.8 -->
            <parkingAreaReroute id="425463616" visible="true"/> <!-- dist: 451.6 -->
            <parkingAreaReroute id="425463618" visible="true"/> <!-- dist: 470.2 -->
            <parkingAreaReroute id="9842754398" visible="true"/> <!-- dist: 470.2 -->
            <parkingAreaReroute id="9842754403" visible="true"/> <!-- dist: 470.2 -->
            <parkingAreaReroute id="9901868796" visible="true"/> <!-- dist: 577.4 -->
            <parkingAreaReroute id="10011497859" visible="true"/> <!-- dist: 654.0 -->
            <parkingAreaReroute id="9901899610" visible="true"/> <!-- dist: 679.1 -->
            <parkingAreaReroute id="9901899612" visible="true"/> <!-- dist: 679.1 -->
        </interval>
    </rerouter>

    <rerouter id="10015789472" edges="162975557#1">
        <interval begin="0.0" end="86400">
            <!-- in order of distance --> 
            <parkingAreaReroute id="10015789472" visible="true"/> <!-- dist: 0.0 -->
            <parkingAreaReroute id="9901868796" visible="true"/> <!-- dist: 199.6 -->
            <parkingAreaReroute id="9901899610" visible="true"/> <!-- dist: 358.3 -->
            <parkingAreaReroute id="9901899612" visible="true"/> <!-- dist: 358.3 -->
            <parkingAreaReroute id="10011497903" visible="true"/> <!-- dist: 374.5 -->
            <parkingAreaReroute id="9928255966" visible="true"/> <!-- dist: 391.3 -->
            <parkingAreaReroute id="10011497859" visible="true"/> <!-- dist: 396.9 -->
            <parkingAreaReroute id="10013312095" visible="true"/> <!-- dist: 455.5 -->
            <parkingAreaReroute id="425463618" visible="true"/> <!-- dist: 488.7 -->
            <parkingAreaReroute id="9842754398" visible="true"/> <!-- dist: 488.7 -->
            <parkingAreaReroute id="9842754403" visible="true"/> <!-- dist: 488.7 -->
        </interval>
    </rerouter>

    <rerouter id="10015789474" edges="-25367021#1">
        <interval begin="0.0" end="86400">
            <!-- in order of distance --> 
            <parkingAreaReroute id="10015789474" visible="true"/> <!-- dist: 0.0 -->
            <parkingAreaReroute id="10011497903" visible="true"/> <!-- dist: 93.8 -->
            <parkingAreaReroute id="10015789472" visible="true"/> <!-- dist: 97.1 -->
            <parkingAreaReroute id="9901868796" visible="true"/> <!-- dist: 277.7 -->
            <parkingAreaReroute id="9901899610" visible="true"/> <!-- dist: 465.4 -->
            <parkingAreaReroute id="9901899612" visible="true"/> <!-- dist: 465.4 -->
            <parkingAreaReroute id="10011497859" visible="true"/> <!-- dist: 467.2 -->
            <parkingAreaReroute id="9928255966" visible="true"/> <!-- dist: 498.4 -->
            <parkingAreaReroute id="10013312095" visible="true"/> <!-- dist: 562.6 -->
            <parkingAreaReroute id="425463618" visible="true"/> <!-- dist: 595.8 -->
            <parkingAreaReroute id="9842754398" visible="true"/> <!-- dist: 595.8 -->
        </interval>
    </rerouter>

    <rerouter id="1071756499" edges="-92352263#1">
        <interval begin="0.0" end="86400">
            <!-- in order of distance --> 
            <parkingAreaReroute id="1071756499" visible="true"/> <!-- dist: 0.0 -->
            <parkingAreaReroute id="9460532247" visible="true"/> <!-- dist: 614.8 -->
            <parkingAreaReroute id="9460532246" visible="true"/> <!-- dist: 621.1 -->
            <parkingAreaReroute id="443883402" visible="true"/> <!-- dist: 763.9 -->
        </interval>
    </rerouter>

    <rerouter id="1192154284" edges="455083994#1">
        <interval begin="0.0" end="86400">
            <!-- in order of distance --> 
            <parkingAreaReroute id="1192154284" visible="true"/> <!-- dist: 0.0 -->
            <parkingAreaReroute id="4691145927" visible="true"/> <!-- dist: 57.6 -->
            <parkingAreaReroute id="4691035214" visible="true"/> <!-- dist: 259.1 -->
            <parkingAreaReroute id="4691035215" visible="true"/> <!-- dist: 296.9 -->
            <parkingAreaReroute id="9842804728" visible="true"/> <!-- dist: 299.4 -->
            <parkingAreaReroute id="9842804735" visible="true"/> <!-- dist: 301.7 -->
            <parkingAreaReroute id="4691035206" visible="true"/> <!-- dist: 324.2 -->
            <parkingAreaReroute id="4691145929" visible="true"/> <!-- dist: 384.1 -->
            <parkingAreaReroute id="4711905744" visible="true"/> <!-- dist: 450.9 -->
            <parkingAreaReroute id="4711872819" visible="true"/> <!-- dist: 798.0 -->
            <parkingAreaReroute id="4724154708" visible="true"/> <!-- dist: 815.8 -->
        </interval>
    </rerouter>

    <rerouter id="1192166647" edges="4320471#6">
        <interval begin="0.0" end="86400">
            <!-- in order of distance --> 
            <parkingAreaReroute id="1192166647" visible="true"/> <!-- dist: 0.0 -->
            <parkingAreaReroute id="4711872819" visible="true"/> <!-- dist: 121.7 -->
            <parkingAreaReroute id="1192154284" visible="true"/> <!-- dist: 306.6 -->
            <parkingAreaReroute id="4691145927" visible="true"/> <!-- dist: 374.2 -->
            <parkingAreaReroute id="4724154708" visible="true"/> <!-- dist: 441.0 -->
            <parkingAreaReroute id="4691035214" visible="true"/> <!-- dist: 457.2 -->
            <parkingAreaReroute id="4691035215" visible="true"/> <!-- dist: 495.0 -->
            <parkingAreaReroute id="9842804728" visible="true"/> <!-- dist: 497.5 -->
            <parkingAreaReroute id="9842804735" visible="true"/> <!-- dist: 499.9 -->
            <parkingAreaReroute id="4691035206" visible="true"/> <!-- dist: 522.3 -->
            <parkingAreaReroute id="4691145929" visible="true"/> <!-- dist: 582.3 -->
        </interval>
    </rerouter>

    <rerouter id="1605686925" edges="39442470#0">
        <interval begin="0.0" end="86400">
            <!-- in order of distance --> 
            <parkingAreaReroute id="1605686925" visible="true"/> <!-- dist: 0.0 -->
            <parkingAreaReroute id="9901868796" visible="true"/> <!-- dist: 290.6 -->
            <parkingAreaReroute id="9901899610" visible="true"/> <!-- dist: 426.7 -->
            <parkingAreaReroute id="9901899612" visible="true"/> <!-- dist: 426.7 -->
            <parkingAreaReroute id="9928255966" visible="true"/> <!-- dist: 456.6 -->
            <parkingAreaReroute id="10015789472" visible="true"/> <!-- dist: 484.1 -->
            <parkingAreaReroute id="10011497859" visible="true"/> <!-- dist: 487.8 -->
            <parkingAreaReroute id="10013312095" visible="true"/> <!-- dist: 509.7 -->
            <parkingAreaReroute id="10011497903" visible="true"/> <!-- dist: 516.1 -->
            <parkingAreaReroute id="4691145929" visible="true"/> <!-- dist: 533.7 -->
            <parkingAreaReroute id="425463618" visible="true"/> <!-- dist: 557.1 -->
        </interval>
    </rerouter>

    <rerouter id="3478569128" edges="827050971#10">
        <interval begin="0.0" end="86400">
            <!-- in order of distance --> 
            <parkingAreaReroute id="3478569128" visible="true"/> <!-- dist: 0.0 -->
            <parkingAreaReroute id="425463616" visible="true"/> <!-- dist: 234.8 -->
            <parkingAreaReroute id="4402728105" visible="true"/> <!-- dist: 358.2 -->
            <parkingAreaReroute id="425463618" visible="true"/> <!-- dist: 556.9 -->
            <parkingAreaReroute id="9842754398" visible="true"/> <!-- dist: 556.9 -->
            <parkingAreaReroute id="9842754403" visible="true"/> <!-- dist: 556.9 -->
            <parkingAreaReroute id="5882883688" visible="true"/> <!-- dist: 578.9 -->
            <parkingAreaReroute id="10013312095" visible="true"/> <!-- dist: 581.4 -->
            <parkingAreaReroute id="10011893284" visible="true"/> <!-- dist: 599.5 -->
            <parkingAreaReroute id="5411251469" visible="true"/> <!-- dist: 623.1 -->
            <parkingAreaReroute id="10011497859" visible="true"/> <!-- dist: 634.8 -->
        </interval>
    </rerouter>

    <rerouter id="3708177733" edges="20112439#3">
        <interval begin="0.0" end="86400">
            <!-- in order of distance --> 
            <parkingAreaReroute id="3708177733" visible="true"/> <!-- dist: 0.0 -->
            <parkingAreaReroute id="9899959657" visible="true"/> <!-- dist: 329.0 -->
            <parkingAreaReroute id="9899959660" visible="true"/> <!-- dist: 329.0 -->
            <parkingAreaReroute id="9901722408" visible="true"/> <!-- dist: 518.5 -->
            <parkingAreaReroute id="4691145929" visible="true"/> <!-- dist: 810.1 -->
            <parkingAreaReroute id="4691035215" visible="true"/> <!-- dist: 898.4 -->
            <parkingAreaReroute id="9842804728" visible="true"/> <!-- dist: 900.8 -->
            <parkingAreaReroute id="9842804735" visible="true"/> <!-- dist: 903.2 -->
            <parkingAreaReroute id="4691035206" visible="true"/> <!-- dist: 925.7 -->
        </interval>
    </rerouter>

    <rerouter id="4034017411" edges="4320471#6">
        <interval begin="0.0" end="86400">
            <!-- in order of distance --> 
            <parkingAreaReroute id="4034017411" visible="true"/> <!-- dist: 0.0 -->
            <parkingAreaReroute id="1192166647" visible="true"/> <!-- dist: 35.8 -->
            <parkingAreaReroute id="4711872819" visible="true"/> <!-- dist: 167.5 -->
            <parkingAreaReroute id="1192154284" visible="true"/> <!-- dist: 352.4 -->
            <parkingAreaReroute id="4691145927" visible="true"/> <!-- dist: 420.0 -->
            <parkingAreaReroute id="4724154708" visible="true"/> <!-- dist: 486.9 -->
            <parkingAreaReroute id="4691035214" visible="true"/> <!-- dist: 503.0 -->
            <parkingAreaReroute id="4691035215" visible="true"/> <!-- dist: 540.8 -->
            <parkingAreaReroute id="9842804728" visible="true"/> <!-- dist: 543.3 -->
            <parkingAreaReroute id="9842804735" visible="true"/> <!-- dist: 545.7 -->
            <parkingAreaReroute id="4691035206" visible="true"/> <!-- dist: 568.1 -->
        </interval>
    </rerouter>

    <rerouter id="425463616" edges="366840862#9">
        <interval begin="0.0" end="86400">
            <!-- in order of distance --> 
            <parkingAreaReroute id="425463616" visible="true"/> <!-- dist: 0.0 -->
            <parkingAreaReroute id="3478569128" visible="true"/> <!-- dist: 338.4 -->
            <parkingAreaReroute id="10011893284" visible="true"/> <!-- dist: 354.8 -->
            <parkingAreaReroute id="10011497859" visible="true"/> <!-- dist: 390.1 -->
            <parkingAreaReroute id="425463618" visible="true"/> <!-- dist: 426.7 -->
            <parkingAreaReroute id="9842754398" visible="true"/> <!-- dist: 426.7 -->
            <parkingAreaReroute id="9842754403" visible="true"/> <!-- dist: 426.7 -->
            <parkingAreaReroute id="5411251469" visible="true"/> <!-- dist: 488.6 -->
            <parkingAreaReroute id="9901889709" visible="true"/> <!-- dist: 533.5 -->
            <parkingAreaReroute id="9901889710" visible="true"/> <!-- dist: 533.5 -->
            <parkingAreaReroute id="9928255966" visible="true"/> <!-- dist: 604.0 -->
        </interval>
    </rerouter>

    <rerouter id="425463618" edges="165325605#5">
        <interval begin="0.0" end="86400">
            <!-- in order of distance --> 
            <parkingAreaReroute id="425463618" visible="true"/> <!-- dist: 0.0 -->
            <parkingAreaReroute id="9928255966" visible="true"/> <!-- dist: 167.4 -->
            <parkingAreaReroute id="9901899610" visible="true"/> <!-- dist: 198.9 -->
            <parkingAreaReroute id="9901899612" visible="true"/> <!-- dist: 198.9 -->
            <parkingAreaReroute id="10013312095" visible="true"/> <!-- dist: 231.6 -->
            <parkingAreaReroute id="1605686925" visible="true"/> <!-- dist: 487.0 -->
            <parkingAreaReroute id="425463616" visible="true"/> <!-- dist: 570.5 -->
            <parkingAreaReroute id="10011497859" visible="true"/> <!-- dist: 597.1 -->
            <parkingAreaReroute id="9901889709" visible="true"/> <!-- dist: 663.0 -->
            <parkingAreaReroute id="9901889710" visible="true"/> <!-- dist: 663.0 -->
            <parkingAreaReroute id="10011893284" visible="true"/> <!-- dist: 746.2 -->
        </interval>
    </rerouter>

    <rerouter id="4402728105" edges="20112461#4">
        <interval begin="0.0" end="86400">
            <!-- in order of distance --> 
            <parkingAreaReroute id="4402728105" visible="true"/> <!-- dist: 0.0 -->
            <parkingAreaReroute id="425463616" visible="true"/> <!-- dist: 359.1 -->
            <parkingAreaReroute id="3478569128" visible="true"/> <!-- dist: 559.4 -->
            <parkingAreaReroute id="425463618" visible="true"/> <!-- dist: 669.9 -->
            <parkingAreaReroute id="9842754398" visible="true"/> <!-- dist: 669.9 -->
            <parkingAreaReroute id="9842754403" visible="true"/> <!-- dist: 669.9 -->
            <parkingAreaReroute id="10013312095" visible="true"/> <!-- dist: 692.7 -->
            <parkingAreaReroute id="10011893284" visible="true"/> <!-- dist: 722.0 -->
            <parkingAreaReroute id="5882883688" visible="true"/> <!-- dist: 729.0 -->
            <parkingAreaReroute id="10011497859" visible="true"/> <!-- dist: 757.3 -->
            <parkingAreaReroute id="5411251469" visible="true"/> <!-- dist: 773.2 -->
        </interval>
    </rerouter>

    <rerouter id="443883402" edges="-20170649#1">
        <interval begin="0.0" end="86400">
            <!-- in order of distance --> 
            <parkingAreaReroute id="443883402" visible="true"/> <!-- dist: 0.0 -->
            <parkingAreaReroute id="1071756499" visible="true"/> <!-- dist: 632.9 -->
            <parkingAreaReroute id="9460532247" visible="true"/> <!-- dist: 727.7 -->
            <parkingAreaReroute id="9460532246" visible="true"/> <!-- dist: 734.0 -->
            <parkingAreaReroute id="4711905744" visible="true"/> <!-- dist: 734.1 -->
            <parkingAreaReroute id="4691035214" visible="true"/> <!-- dist: 943.9 -->
            <parkingAreaReroute id="4691035215" visible="true"/> <!-- dist: 977.2 -->
            <parkingAreaReroute id="9842804728" visible="true"/> <!-- dist: 979.6 -->
            <parkingAreaReroute id="9842804735" visible="true"/> <!-- dist: 982.0 -->
        </interval>
    </rerouter>

    <rerouter id="4691035206" edges="41258976#3">
        <interval begin="0.0" end="86400">
            <!-- in order of distance --> 
            <parkingAreaReroute id="4691035206" visible="true"/> <!-- dist: 0.0 -->
            <parkingAreaReroute id="4691145929" visible="true"/> <!-- dist: 49.9 -->
            <parkingAreaReroute id="4691035214" visible="true"/> <!-- dist: 396.7 -->
            <parkingAreaReroute id="4711905744" visible="true"/> <!-- dist: 417.7 -->
            <parkingAreaReroute id="4711872819" visible="true"/> <!-- dist: 548.4 -->
            <parkingAreaReroute id="1192154284" visible="true"/> <!-- dist: 565.7 -->
            <parkingAreaReroute id="4691145927" visible="true"/> <!-- dist: 633.3 -->
            <parkingAreaReroute id="3708177733" visible="true"/> <!-- dist: 655.7 -->
            <parkingAreaReroute id="4034017411" visible="true"/> <!-- dist: 667.4 -->
            <parkingAreaReroute id="10015789472" visible="true"/> <!-- dist: 690.7 -->
            <parkingAreaReroute id="9901868796" visible="true"/> <!-- dist: 707.5 -->
        </interval>
    </rerouter>

    <rerouter id="4691035214" edges="41258976#1">
        <interval begin="0.0" end="86400">
            <!-- in order of distance --> 
            <parkingAreaReroute id="4691035214" visible="true"/> <!-- dist: 0.0 -->
            <parkingAreaReroute id="4691035215" visible="true"/> <!-- dist: 27.8 -->
            <parkingAreaReroute id="9842804728" visible="true"/> <!-- dist: 30.3 -->
            <parkingAreaReroute id="9842804735" visible="true"/> <!-- dist: 32.7 -->
            <parkingAreaReroute id="4691035206" visible="true"/> <!-- dist: 55.1 -->
            <parkingAreaReroute id="4691145929" visible="true"/> <!-- dist: 115.1 -->
            <parkingAreaReroute id="4711905744" visible="true"/> <!-- dist: 398.1 -->
            <parkingAreaReroute id="4711872819" visible="true"/> <!-- dist: 528.9 -->
            <parkingAreaReroute id="1192154284" visible="true"/> <!-- dist: 546.1 -->
            <parkingAreaReroute id="4691145927" visible="true"/> <!-- dist: 613.7 -->
            <parkingAreaReroute id="4034017411" visible="true"/> <!-- dist: 647.8 -->
        </interval>
    </rerouter>

    <rerouter id="4691035215" edges="41258976#3">
        <interval begin="0.0" end="86400">
            <!-- in order of distance --> 
            <parkingAreaReroute id="4691035215" visible="true"/> <!-- dist: 0.0 -->
            <parkingAreaReroute id="4691035206" visible="true"/> <!-- dist: 17.3 -->
            <parkingAreaReroute id="4691145929" visible="true"/> <!-- dist: 77.2 -->
            <parkingAreaReroute id="4691035214" visible="true"/> <!-- dist: 424.0 -->
            <parkingAreaReroute id="4711905744" visible="true"/> <!-- dist: 445.0 -->
            <parkingAreaReroute id="4711872819" visible="true"/> <!-- dist: 575.7 -->
            <parkingAreaReroute id="1192154284" visible="true"/> <!-- dist: 593.0 -->
            <parkingAreaReroute id="4691145927" visible="true"/> <!-- dist: 660.6 -->
            <parkingAreaReroute id="3708177733" visible="true"/> <!-- dist: 683.0 -->
            <parkingAreaReroute id="4034017411" visible="true"/> <!-- dist: 694.7 -->
            <parkingAreaReroute id="10015789472" visible="true"/> <!-- dist: 718.0 -->
        </interval>
    </rerouter>

    <rerouter id="4691145927" edges="455083994#1">
        <interval begin="0.0" end="86400">
            <!-- in order of distance --> 
            <parkingAreaReroute id="4691145927" visible="true"/> <!-- dist: 0.0 -->
            <parkingAreaReroute id="4691035214" visible="true"/> <!-- dist: 191.5 -->
            <parkingAreaReroute id="4691035215" visible="true"/> <!-- dist: 229.3 -->
            <parkingAreaReroute id="9842804728" visible="true"/> <!-- dist: 231.7 -->
            <parkingAreaReroute id="9842804735" visible="true"/> <!-- dist: 234.1 -->
            <parkingAreaReroute id="4691035206" visible="true"/> <!-- dist: 256.6 -->
            <parkingAreaReroute id="4691145929" visible="true"/> <!-- dist: 316.5 -->
            <parkingAreaReroute id="4711905744" visible="true"/> <!-- dist: 383.3 -->
            <parkingAreaReroute id="4711872819" visible="true"/> <!-- dist: 730.3 -->
            <parkingAreaReroute id="4724154708" visible="true"/> <!-- dist: 748.1 -->
            <parkingAreaReroute id="4034017411" visible="true"/> <!-- dist: 849.3 -->
        </interval>
    </rerouter>

    <rerouter id="4691145929" edges="465656094#1">
        <interval begin="0.0" end="86400">
            <!-- in order of distance --> 
            <parkingAreaReroute id="4691145929" visible="true"/> <!-- dist: 0.0 -->
            <parkingAreaReroute id="4691035215" visible="true"/> <!-- dist: 308.6 -->
            <parkingAreaReroute id="9842804728" visible="true"/> <!-- dist: 311.0 -->
            <parkingAreaReroute id="9842804735" visible="true"/> <!-- dist: 313.4 -->
            <parkingAreaReroute id="4691035206" visible="true"/> <!-- dist: 335.9 -->
            <parkingAreaReroute id="4691035214" visible="true"/> <!-- dist: 586.4 -->
            <parkingAreaReroute id="3708177733" visible="true"/> <!-- dist: 595.7 -->
            <parkingAreaReroute id="4711905744" visible="true"/> <!-- dist: 607.4 -->
            <parkingAreaReroute id="10015789472" visible="true"/> <!-- dist: 630.8 -->
            <parkingAreaReroute id="9899959657" visible="true"/> <!-- dist: 651.4 -->
            <parkingAreaReroute id="9899959660" visible="true"/> <!-- dist: 651.4 -->
        </interval>
    </rerouter>

    <rerouter id="4711872819" edges="4320471#10">
        <interval begin="0.0" end="86400">
            <!-- in order of distance --> 
            <parkingAreaReroute id="4711872819" visible="true"/> <!-- dist: 0.0 -->
            <parkingAreaReroute id="4691035214" visible="true"/> <!-- dist: 325.5 -->
            <parkingAreaReroute id="4691035215" visible="true"/> <!-- dist: 363.4 -->
            <parkingAreaReroute id="9842804728" visible="true"/> <!-- dist: 365.8 -->
            <parkingAreaReroute id="9842804735" visible="true"/> <!-- dist: 368.2 -->
            <parkingAreaReroute id="4691035206" visible="true"/> <!-- dist: 390.7 -->
            <parkingAreaReroute id="4724154708" visible="true"/> <!-- dist: 397.6 -->
            <parkingAreaReroute id="4691145929" visible="true"/> <!-- dist: 450.6 -->
            <parkingAreaReroute id="4034017411" visible="true"/> <!-- dist: 508.4 -->
            <parkingAreaReroute id="4711905744" visible="true"/> <!-- dist: 532.3 -->
            <parkingAreaReroute id="1192166647" visible="true"/> <!-- dist: 554.2 -->
        </interval>
    </rerouter>

    <rerouter id="4711905744" edges="330153473#1">
        <interval begin="0.0" end="86400">
            <!-- in order of distance --> 
            <parkingAreaReroute id="4711905744" visible="true"/> <!-- dist: 0.0 -->
            <parkingAreaReroute id="4691035214" visible="true"/> <!-- dist: 440.8 -->
            <parkingAreaReroute id="4691035215" visible="true"/> <!-- dist: 474.0 -->
            <parkingAreaReroute id="9842804728" visible="true"/> <!-- dist: 476.5 -->
            <parkingAreaReroute id="9842804735" visible="true"/> <!-- dist: 478.9 -->
            <parkingAreaReroute id="4691035206" visible="true"/> <!-- dist: 501.3 -->
            <parkingAreaReroute id="4691145929" visible="true"/> <!-- dist: 561.3 -->
            <parkingAreaReroute id="4711872819" visible="true"/> <!-- dist: 801.9 -->
            <parkingAreaReroute id="1192154284" visible="true"/> <!-- dist: 819.2 -->
            <parkingAreaReroute id="443883402" visible="true"/> <!-- dist: 858.6 -->
            <parkingAreaReroute id="4691145927" visible="true"/> <!-- dist: 886.8 -->
        </interval>
    </rerouter>

    <rerouter id="4724154708" edges="165337364#10">
        <interval begin="0.0" end="86400">
            <!-- in order of distance --> 
            <parkingAreaReroute id="4724154708" visible="true"/> <!-- dist: 0.0 -->
            <parkingAreaReroute id="4691035214" visible="true"/> <!-- dist: 356.5 -->
            <parkingAreaReroute id="4691035215" visible="true"/> <!-- dist: 394.3 -->
            <parkingAreaReroute id="9842804728" visible="true"/> <!-- dist: 396.7 -->
            <parkingAreaReroute id="9842804735" visible="true"/> <!-- dist: 399.1 -->
            <parkingAreaReroute id="4691035206" visible="true"/> <!-- dist: 421.6 -->
            <parkingAreaReroute id="4691145929" visible="true"/> <!-- dist: 481.5 -->
            <parkingAreaReroute id="4711905744" visible="true"/> <!-- dist: 563.2 -->
            <parkingAreaReroute id="4711872819" visible="true"/> <!-- dist: 612.2 -->
            <parkingAreaReroute id="4034017411" visible="true"/> <!-- dist: 613.4 -->
            <parkingAreaReroute id="9901868796" visible="true"/> <!-- dist: 651.4 -->
        </interval>
    </rerouter>

    <rerouter id="5411251469" edges="-455722372#0">
        <interval begin="0.0" end="86400">
            <!-- in order of distance --> 
            <parkingAreaReroute id="5411251469" visible="true"/> <!-- dist: 0.0 -->
            <parkingAreaReroute id="10011893284" visible="true"/> <!-- dist: 172.8 -->
            <parkingAreaReroute id="10011497859" visible="true"/> <!-- dist: 229.4 -->
            <parkingAreaReroute id="3478569128" visible="true"/> <!-- dist: 369.7 -->
            <parkingAreaReroute id="9901889709" visible="true"/> <!-- dist: 384.1 -->
            <parkingAreaReroute id="9901889710" visible="true"/> <!-- dist: 384.1 -->
            <parkingAreaReroute id="5865950489" visible="true"/> <!-- dist: 406.3 -->
            <parkingAreaReroute id="425463618" visible="true"/> <!-- dist: 454.5 -->
            <parkingAreaReroute id="9842754398" visible="true"/> <!-- dist: 454.5 -->
            <parkingAreaReroute id="9842754403" visible="true"/> <!-- dist: 454.5 -->
            <parkingAreaReroute id="10011497903" visible="true"/> <!-- dist: 460.5 -->
        </interval>
    </rerouter>

    <rerouter id="5865950489" edges="-20112623#7">
        <interval begin="0.0" end="86400">
            <!-- in order of distance --> 
            <parkingAreaReroute id="5865950489" visible="true"/> <!-- dist: 0.0 -->
            <parkingAreaReroute id="5411251469" visible="true"/> <!-- dist: 374.2 -->
            <parkingAreaReroute id="5882883688" visible="true"/> <!-- dist: 459.8 -->
            <parkingAreaReroute id="10011893284" visible="true"/> <!-- dist: 487.2 -->
            <parkingAreaReroute id="3478569128" visible="true"/> <!-- dist: 499.0 -->
            <parkingAreaReroute id="10011497859" visible="true"/> <!-- dist: 543.8 -->
            <parkingAreaReroute id="4402728105" visible="true"/> <!-- dist: 640.1 -->
            <parkingAreaReroute id="9901889709" visible="true"/> <!-- dist: 698.5 -->
            <parkingAreaReroute id="9901889710" visible="true"/> <!-- dist: 698.5 -->
            <parkingAreaReroute id="425463616" visible="true"/> <!-- dist: 743.8 -->
            <parkingAreaReroute id="425463618" visible="true"/> <!-- dist: 768.9 -->
        </interval>
    </rerouter>

    <rerouter id="5882883688" edges="20112793#2">
        <interval begin="0.0" end="86400">