<additional xmlns:xsi="http://www.w3.org/2001/XMLSchema-instance" xsi:noNamespaceSchemaLocation="http://sumo.dlr.de/xsd/additional_file.xsd">
    <parkingArea id="128001567#1" lane="128001567#1_1" startPos="5" endPos="-5" roadsideCapacity="4" />
    <parkingArea id="282423433#0" lane="282423433#0_1" startPos="5" endPos="-5" roadsideCapacity="4" />
<parkingArea id="3163969119" lane="1082402416#1_2" startPos="10.961984704937839" endPos="20.96198470493784" roadsideCapacity="100" friendlyPos="true" />
    <parkingArea id="3493397473" lane="316470331#5_2" startPos="52.693072159688775" endPos="62.693072159688775" roadsideCapacity="100" friendlyPos="true" />
    <parkingArea id="4321538866" lane="439958483_1" startPos="12.165656432936316" endPos="22.165656432936316" roadsideCapacity="100" friendlyPos="true" />
    <parkingArea id="4321539316" lane="1077987394#0_1" startPos="10.0" endPos="20.0" roadsideCapacity="100" friendlyPos="true" />
    <parkingArea id="4908928929" lane="439958483_1" startPos="16.946352509235854" endPos="26.946352509235854" roadsideCapacity="100" friendlyPos="true" />
    <parkingArea id="7431532517" lane="503887768_1" startPos="19.384655766421744" endPos="29.384655766421744" roadsideCapacity="100" friendlyPos="true" />
    <parkingArea id="7431532519" lane="503887768_1" startPos="10.0" endPos="20.0" roadsideCapacity="100" friendlyPos="true" />
    <parkingArea id="8649142168" lane="20415457#2_1" startPos="21.0" endPos="31.0" roadsideCapacity="100" friendlyPos="true" />
    <parkingArea id="8649142226" lane="20415457#2_1" startPos="21.0" endPos="31.0" roadsideCapacity="100" friendlyPos="true" />
    <parkingArea id="8649142229" lane="344887671#1_1" startPos="10.0" endPos="20.0" roadsideCapacity="100" friendlyPos="true" />
    <parkingArea id="8649142232" lane="20415457#2_1" startPos="10.0" endPos="20.0" roadsideCapacity="100" friendlyPos="true" />
    <parkingArea id="8649142233" lane="20415457#2_1" startPos="10.0" endPos="20.0" roadsideCapacity="100" friendlyPos="true" />
    <parkingArea id="8649247439" lane="48114760#1_1" startPos="23.18" endPos="33.18" roadsideCapacity="100" friendlyPos="true" />
    <parkingArea id="9214817340" lane="389096588#1_1" startPos="25.60053902915237" endPos="35.60053902915237" roadsideCapacity="100" friendlyPos="true" />
    <parkingArea id="9255003466" lane="20904783#3_1" startPos="10.0" endPos="20.0" roadsideCapacity="100" friendlyPos="true" />
    <parkingArea id="9297813719" lane="463878820#2_1" startPos="37.71" endPos="47.71" roadsideCapacity="100" friendlyPos="true" />
    <parkingArea id="9311546441" lane="933080054#4_1" startPos="60.74927266079712" endPos="70.74927266079712" roadsideCapacity="100" friendlyPos="true" />
    <parkingArea id="9895053284" lane="37709559#0_1" startPos="114.46000000000001" endPos="124.46000000000001" roadsideCapacity="100" friendlyPos="true" />
    <parkingArea id="9895053313" lane="976031843#0_1" startPos="10.0" endPos="20.0" roadsideCapacity="100" friendlyPos="true" />
    <parkingArea id="9895053315" lane="37709559#1_1" startPos="24.1" endPos="34.1" roadsideCapacity="100" friendlyPos="true" />
    <parkingArea id="9908445011" lane="1081026833#1_1" startPos="10.0" endPos="20.0" roadsideCapacity="100" friendlyPos="true" />
    <parkingArea id="9911380356" lane="1080986807#2_1" startPos="217.75" endPos="227.75" roadsideCapacity="100" friendlyPos="true" />
    <parkingArea id="9912529054" lane="-463848445#4_1" startPos="14.399999999999999" endPos="24.4" roadsideCapacity="100" friendlyPos="true" />
    <parkingArea id="9920035787" lane="453957882#1_1" startPos="15.299999999999997" endPos="25.299999999999997" roadsideCapacity="100" friendlyPos="true" />
    <parkingArea id="9920047044" lane="464047500#3_1" startPos="10.0" endPos="20.0" roadsideCapacity="100" friendlyPos="true" />
    <parkingArea id="9920047055" lane="464047500#4_1" startPos="18.15" endPos="28.15" roadsideCapacity="100" friendlyPos="true" />
    <parkingArea id="9920047071" lane="464047500#10_1" startPos="10.0" endPos="20.0" roadsideCapacity="100" friendlyPos="true" />
    <parkingArea id="9920047072" lane="464047500#7_1" startPos="23.29" endPos="33.29" roadsideCapacity="100" friendlyPos="true" />
    <parkingArea id="9923670292" lane="439958483_1" startPos="51.1733368719806" endPos="61.1733368719806" roadsideCapacity="100" friendlyPos="true" />
    <parkingArea id="9923670293" lane="439958483_1" startPos="54.380071086391645" endPos="64.38007108639164" roadsideCapacity="100" friendlyPos="true" />
</additional>