<?xml version="1.0" encoding="UTF-8"?>

<!-- generated on 2022-09-14 21:20:01.878796 by socket_server.py v1_14_1+0000-f654d7b963e
  options: 
-->

<tazs xmlns:xsi="http://www.w3.org/2001/XMLSchema-instance" xsi:noNamespaceSchemaLocation="http://sumo.dlr.de/xsd/taz_file.xsd">
    <!-- id="197561" name="Westmount" -->
    <taz id="197561" edges="231387460#0 -37807547#1 26026751#2 329694552#1 26026751#0 231387458#0 575547253#0 37953798#1 463679894#0 200638835#0 337432401#6 92352267#0 231387458#1 37953798#0 -37956453 728796869#0 453954922 37956453 37807547#1 231387458#2"/>
    <!-- id="1572820" name="Ville-Marie" -->
    <taz id="1572820" edges="1084242806#1 1080053563#2 329694555#2 340606207#0 477907526#1 -437207233 -463677569#2 164859462 40331091 -1080024436#2 481494294#0 -37997326 -347287633 1080024444 673699710#2 1083353192#1 477791107#0 1051822950#8 704194094#0 481492222#0 -20112443#2 806940756#5 475354376#1 479290589 1051147172#8 -21280706#2 113861078#1 704194089 347724772 704194122#0 4886314#1 -112850610 37997319 244648183#7 41651758#3 -936644262 329989224#1 465653673 1080020849#4 1080020854#1 37852832#2 479286501#1 -19899281#2 1093212182 41651758#2 20112442#2 -20112451#0 1051822951#3 40325343 463677569#0 20112458#1 859883129 1072863582#0 -437207232 1061395652#3 477767263#9 -1072844433#0 -573448690#1 19899281#1 477890303#2 806940761#1 95427590 1084242802#0 806940756#3 1084242792#1 477745729 463677230#2 -1080261863#1 477904916 111771070 1051147172#16 806924911#3 463677230#0 1080077831#2 104453157#1 1080261659 1093161751#1 1080055537 477764580#0 165264484#1 806940750#1 20112449#2 1084242801#1 806940759#0 1093574970#0 111771071#3 -975251637#1 1042466503#0 4886314#3 1090296260#3 -1083559348 1084242781#0 -473733101#2 1080053563#3 1061398537 -347724804 331907542#1 41651761#1 -25367021#5 1073101735#1 1051147172#12 1084242813#1 806940742#1 1072839937#0 -162975557#1 473733101#3 1080020852#0 1080077825#2 1080268302#2 1073080551#0 -19899376#1 1073101739#0 475351847#4 806940750#0 200638835#0 806940747#0 -113861078#0 1082150047#1 477794900#4 806940756#1 477791108#1 1041940066#4 -37852832#0 479293888 1051147172#7 477907526#0 40337455#1 1084242811#1 165325605#7 806940744#0 25366817#1 329694555#4 40325345 704194091#2 1080285234 1090296246#1 25367028#5 41258976#1 806940747#3 1072844430#1 112850606 1084242815 463676555#5 337432401#6 1084242781#1 41651757 475354377#1 1080024438#0 -406830688 21280706#2 454002561#1 1090296251#0 992579641#1 1080269188#1 -473733101#3 463676555#6 924892081#1 -1073101737#0 1083353576 1080020853#0 -19899281#0 -40337455#1 -354710423#1 1041940066#1 477792464 313639760 41691766#1 -463676555#6 -1051822951#7 1080279610 25366817#0 477791109 1080024441#1 453745797#1 -107696154#0 165217829#1 -103935601 -1042467341#4 -37997315#0 477890300#1 1080292019#1 686625290#0 1083354143 477913128#0 477764582 475351847#3 704214838#0 37918518#1 1084242786#0 -25367384 -1051822950#3 1084242788#1 1080292016#0 -37918518#1 1084242799#2 454188456 806940759#1 1090298890#3 704194093#0 1084242804#0 1080077826#1 340606442#3 447792018#1 26026532#1 -354710422#0 1084242807 -1061395644#1 1080020851#5 -37852846#0 964696603#0 337432398#0 953108141#0 704194087#0 -1073075555#1 231387459 -25366817#1 -998268054#0 -766379901 -165325605#5 329694556#0 165217839#0 1090296245#0 479286500 477912389#0 25367021#1 586136339#0 -329694555#0 20112451#5 -766379891 40332813 -473733101#5 704194125#1 1051147172#10 454188458#0 25367003#0 1072863586#0 465656094#1 -37997315#3 1084240081 806940758#2 244648184 728796869#2 1080274568#0 340606311#1 1090296248 1090296249#0 1061395649 1080020851#1 103896396#3 37997321#1 -1073075555#0 806940757#0 -113861078#1 112850607 -463676555#4 330150435#9 -463676555#3 463677569#2 20112442#1 -766379892 -1073103903#0 1090296253#0 -111771067#1 -37807546 1080024439#1 19683769#0 463676555#2 37918512 -1073075557#1 915208306#1 465653665#1 -1072844433#1 340605395#4 1084242810#1 477792465 1051822951#2 340606442#0 19683769#1 1080020849#1 329694553#1 354710423#2 -1093161745#0 -1080276501#1 -111771071#1 25367021#6 477759702#1 806940762#1 337432398#1 1073101737#0 1080275591#1 1072839933 1080053996 1080285242#0 477911582 1080078916#0 475351847#2 477794910 1084242795#2 1090296514 479286504 1090296255#0 -25366945#0 1080020854#2 806940701 347724256 1084242789 -20112449#1 1080024441#3 165217829#0 103974914#5 1090296247 477773266#1 1061395652#1 -165217829#0 1073101738#2 477544162#1 26026751#2 35165799-AddedOnRampEdge 477806074 477904514 1083353193#2 1093364879 -40332801 -437207230 1080272375 704194095#3 19899374#2 1080053559#1 1066503151#1 1061402109#1 25367021#5 1080285241#1 -936656920 -586136340#0 1050419193 1090298422#3 165217770#0 -463677563#1 -20112451#1 329694555#5 340606204 -1041940066#1 -40337455#2 477767263#0 479285591#0 340605395#5 -1080279608#0 41258973#2 41651759 -463677569#0 244648182#4 478157841 1090298426#0 1073083268 1051161289#1 1083353574 1090298889 477890301 548252185#0 1061398534#2 113861079#1 -1090298422#1 477792455#3 -133806981#1 806940749 1051147172#15 1090296261 1072839936#3 1084242818#0 475354377#2 244648195#3 37997317#1 1082161712#1 1080285236 1090296244#1 -1080279610 447792018#0 1073073559 329694556#1 1061395652#0 165265055#0 111771067#5 -111771067#5 477745736 244648195#1 1084242816#1 -1083559347#0 113861078#3 329694559#1 477792455#1 340606311#0 165265055#10 1084242813#0 -41258976#2 347723994 704194095#0 77688236 244648192#0 1090296260#8 1090296260#0 331907686-AddedOnRampEdge 103896396#6 1080020851#2 244648190#0 4687566#2 103974914#4 1051147172#11 437207232 48432096#1 37954103#2 1080078917 25367021#4 394910074#0 1083355343 686625291#1 -111771071#3 41258973#1 -455083994#2 149633802#1 1080024440 -1051822950#6 1083353192#0 1084242808#1 477799909#1 1080077826#2 331907542#5 463676555#7 1041940066#3 1080287375 477911578#0 1084240079#2 575547253#0 1084242782#1 133806980#5 1050419190#1 1080279608#1 1080053550#4 704194095#5 953108141#3 77689004 329988459#8 733125585#2 1080024438#1 19683769#2 1090296260#4 728796869#0 704194095#4 37852845#1 481492405#1 453964892#1 1073106709 1080268302#0 1073080551#1 366836388 -103935602#0 329694554#0 -20112467#2 1090296256#0 340607254#0 -41691766#1 19899374#1 330150434#6 -37997315#2 331907543#2 4320473#8 1080292014#0 1093212183 1090296246#0 704194096#2 -473733101#1 475351680 1051530916#0 41651758#5 133806982 733125585#3 477745739#1 1051161290#2 447793021#0 -37918518#0 165265055#6 164859458#0 20112451#4 1090296250#0 806940744#1 924892081#0 1041940066#8 1041940066#5 463825907#2 463677230#3 1090298428#1 806940776#0 -1080275591#1 8140256#1 477904029 1072863586#1 103974914#1 1082125455#1 329694558 406830691 329694553#2 -25367021#0 1080020853#1 437207233 -1090298422#3 1080077828#0 1090296259 366836391#1 1080077831#0 37852832#1 1080053562 704194094#2 766379897 48678911#1 244648192#2 1080053564 111771071#1 -465656094#1 -477759702#1 -1051822951#3 1073080549#2 330153471 806924890#8 477764583 340606622#2 37997318 -936656919 -998268054#3 725230629#1 1080261863#1 -1073101736 1080053550#1 453954922 545940069 103935602#0 704194123#0 477764581 -25367028#4 1080055535 -21280706#0 -41651755#1 4687632#1 806924900#2 -37849001 -149633802#1 1073080552#1 1073075555#3 1073075557#1 340605395#1 -998268055 1080053550#5 41258976#4 37953798#1 20178495#2 1090298421 1090296516#1 -20112449#4 1080053558#0 22072949#1 1072839937#1 331907542#3 244648183#3 481494294#1 924892084 478156224 133806981#4 164859459#1 1080292017#0 1084242797#0 37918518#2 1084242792#0 1088444984 1084242785#0 477913128#1 1061395650 -463677230#2 1080018020#1 477893921#1 112850598 1073083269 1061398538#1 -40331091 -263157468#1 1080018021#0 337432401#4 1080053565 165265066 -1066503200 1084242799#1 329988459#4 40325366 337432404#3 477802150 -20112449#3 1090298427#1 704194124#2 20170647#2 447793020#1 477794413 1073075554 1090296513#1 477894137 477794925#1 1073080553#0 77689007#0 244648183#0 37997326 -1080268302#1 -112850606 1080285242#1 455083994#3 1080020855 479286506#0 4320473#5 337432401#5 -329694553#2 244648187#1 -766379898 263157468#1 41691765#0 1072839936#4 1083350784 340606622#0 548252185#1 -329694555#2 479290590 481492220#2 1083353196 1080055538#1 479286503#0 -25367021#6 479285594#1 477905830 586136339#2 806940755#2 1072844435 1080018016#1 998268054#2 -366836389#0 -1072844440#0 1080287379 607184015#0 329694554#4 1083570162#0 477794896#1 1051822951#9 -37997319 -1073075557#0 477791107#1 330153472#1 806940762#0 -20112442#3 -37807547#0 -40331155#1 37920508 244648182#3 -25367028#5 330153473#1 1084242801#2 19899376#4 20112451#0 37997316#1 1072844440#0 -456874546#3 83823325#1 1088444985 1072863580#2 -447792018#0 1061398996 1084242799#4 1080020851#0 20112440#1 19683769#3 37852845#0 1093161753#1 -463676555#5 40325346 454188457#0 1072863583 92352263#2 -465656094#0 -41651757 -329694555#5 1084242806#0 -784099214#0 475351847#1 766379896 1061398997#5 -455083994#3 806940748#2 1080292018#1 129810095#1 340606622#1 475354381#0 -766379895 477794900#2 244648182#0 686625290#4 83823325#0 -1080024435#1 465656094#0 1093364880 1080053997 1072839936#2 1090296254#0 481494298#0 329988460#3 1050419191#1 329988459#1 1090298428#5 1084242797#1 103896396#5 -20170647#2 1083353194#1 1083355342#1 806940751#0 1093161745#1 -337432406 111771067#3 704194097#3 -1080053548 463676555#3 806940752#1 1080292014#1 1090296249#1 453949528 331907543#4 1090298428#3 1080024434 477794900#6 -329694558 111771067#2 1051147172#17 37997316#0 1080078916#1 1080020848 1080053560#0 455083980#0 477893922#1 340606207#1 337432404#1 1080053554 1084242801#0 477745739#0 477794896#0 244648190#1 1093161750#0 39442470#0 20112439#1 -20112442#1 806940748#3 -447792019 806940758#0 806940776#1 1080053553 20170647#1 19899376#2 -37852844 4886314#2 1080053549#1 -725230629#3 103974914#7 1051147172#5 37852841#1 103935601 -103974910 25367003#1 766379901 478155231#1 20112451#1 477544162#0 331907542#0 481492405#0 1084242820 1073073560 1041940066#6 1082143328#1 1083354144 1080053552 1080024442#1 41651758#1 953108141#7 -1080018016#1 41691764 1080078919 481492405#5 -129810095#1 998268054#1 1083353199 704194095#1 37997315#1 37918514#0 313639754#0 766379900 806940757#2 -111771067#3 -463676555#1 1090298423#1 4320473#4 806924890#5 -1041940066#7 1080053563#1 454002562#1 1080287376 20112443#2 40332801 -1093416733 92352267#0 453964887#0 1080024436#0 1051822951#7 975251637#0 1061398536 -20112442#2 1090296513#0 41651755#1 1083353195 704194087#2 1080053561#0 -37997315#1 1090298424#1 1061398535 479285591#1 475354379#2 1090296249#4 -77688236 112850605 1083354145 1080292017#1 -133806981#4 -20170649#1 477791108#2 1073075555#1 -26026532#1 953108141#6 1051161291 704194092#1 1084242795#1 337432401#0 1080077830 -112850602 1092666574#0 -1026106360#0 455083976#0 -92352263#3 704194097#1 704194123#2 -37852832#2 859883128 1042466503#1 1051147172#1 1084242792#3 806940774 77689455#1 -41258976#3 733125585#4 165217829#4 477764580#3 477764580#2 -19899376#4 -37722302#1 479285593#1 329694552#0 244492478 -573448691#1 331907686 1080053560#1 -25366817#0 -19899376#2 1080020849#3 231387458#0 -573448691#0 1061395643#0 330150435#7 354710423#1 1093416729#1 455083994#1 1090298422#2 586136340#0 -40331155#0 1073106705#1 1090298422#1 329988460#1 545940065 -37920508 25367021#0 704194122#1 479285592#1 40331155#2 450956616#2 77689003#0 -329988460#1 -1080024435#0 1093161754#0 1051147172#2 704194094#3 477794895#1 806940748#1 -329988460#4 244648191#1 1073083270#0 1061402109#2 1073101737#1 910121015 329694555#1 1080292019#0 -463677230#3 1072839932#0 -1072844436 784099214#1 806924911#0 -1051822951#5 1082150523#3 1080292018#0 -40331155#2 -37852825 -329694554#1 95427581 -463677230#0 -112850598 1084242816#0 953108141#1 340606442#2 -924892081#0 1073080550#2 1080292017#2 1084242795#3 477764584 37953798#0 1084242819 41258976#3 104456616#3 -111771070 244648186 118116148 165265055#5 -1041940066#4 1072844432 1080020851#4 1072839940#0 477799288 -1051822951#4 477767263#5 -1083350785 1051147172#3 936644262 329694552#1 1051147172#9 475354381#1 1084242799#0 -330153471 -1041940066#6 -1080268302#0 329694555#0 1084242793 -20170647#1 1080053549#0 112850602 164859461 21280706#3 1072844434#2 37918523 477907119 -41651758#2 473733101#4 477792455#0 1073080555#0 481494291#0 340606208#1 1061395647 -19899281#1 1080077828#1 806940760#0 330153472#2 1080055539 329694554#7 1051822950#6 330150434#7 806940742#0 806940756#0 20112452#1 329989224#2 329694554#3 481494040 -1076378940 1080053559#0 -329694554#2 975251637#1 96268485#0 1080024436#1 1061395651 -20112451#3 1093364881#1 806940755#1 704194091#1 -463677565#0 477764586 -454188456 293883673 1093161754#1 1083570162#1 792959186#0 1080055531 1080077825#0 1084242795#4 1084242812#1 463676555#4 463677563#1 -1093161745#1 -20112451#4 477791108#0 1080276501#1 1090296253#1 1090296260#6 -1093416731 -37918516 1080053566 573448690#1 -111771067#4 -20112440#1 766379895 936656921 4320473#6 77689003#3 1041940066#7 347723278 340607254#1 447793051 455083981#1 1084242808#0 340606207#2 133806981#1 -25366945#1 1080020856 477767263#7 1072844433#1 1084242792#2 -20112449#2 479285594#0 -1080268302#2 35165792 37852844 -20112467#1 1093161751#2 1051161289#0 -37956453 1061398534#1 -1083353199 -41651758#1 1083353575 244648183#2 1090298428#4 475351847#0 329988459#9 37997315#3 477794905#0 1073101738#0 1090296255#1 112850610 244648182#2 479286502 1090296249#2 1090298423#0 -1093416729#1 1080077831#3 40325362#0 20112427#5 1066503151#0 37997315#2 1026106360#1 1084242784 456874546#3 347723027 -37997321#1 -40337455#0 1093161752 25366945#0 -766379902 231387458#2 1084242818#1 -454002561#0 331907543#1 1080018020#0 -586136339#0 329694554#5 1073073558#0 26026751#0 164859458#1 1072844431 340605395#2 -37918515#0 1072863586#2 -329694554#5 37807547#0 -1080024437 77689455#0 -406830691 704194086#1 -463676555#7 1084242805 -112850605 20170649#1 331907542#2 1061398538#0 -607184015#2 704194096#0 1080053557 -329694555#7 806940748#4 806940747#2 1072863580#0 437207230 19899281#0 1061398997#3 103896396#1 806940747#1 1093161745#0 477911580#1 165325605#5 481492405#3 477911580#0 1080078920 806940748#0 1088224494 113861078#0 -134811810#6 1083350783 477792455#2 -673699710#2 1083570162#2 1080024442#0 -37918512 -406830689 244648183#4 1080024438#2 473733101#5 -25367021#1 37956453 1073101738#1 1080024439#0 37852832#0 244648183#5 1090298424#0 21280706#0 806940751#3 806940702 40325365#1 479286501#0 37918516 806940751#2 463825906#1 704194088#1 165265055#3 1053723952#0 1073101736 107696154#0 1083354147#0 1084242787#1 1080285243 20170650 20112439#4 1080077827#0 474841415#0 1072844440#1 1080292018#2 607184015#3 244648187#0 806940756#2 1061398995 40325365#0 573448691#1 1072863582#1 477767263#6 37918514#1 733125585#1 20112467#1 1073080554 1073080553#1 -725230629#1 165265055#1 35165799 -607184015#4 40331155#0 1080020852#1 1080020849#2 354710422#1 37997317#2 37807546 1082143328#0 1090298890#1 686625291#0 -1080055538#0 477794895#0 25367028#1 -20112452#1 1080285929 20112449#4 313629863#1 40332814 -112850607 806940758#1 -41651759 -1080024436#1 1080292020#1 -961370196 37852845#2 1051822950#3 1084242804#1 22072949#2 474841415#1 704194092#0 -463677569#3 1042466505#1 1090296516#0 1090296250#1 1051147172#6 1090298888#0 1090298427#0 1080285237 -673699710#1 1090296252 704214838#2 1082161712#2 113861079#0 25367021#3 -329694554#4 1072863579#1 1072863581#0 1051161290#1 1080024441#2 463676555#1 1084242818#2 478155028 915208306#0 354710422#0 329988459#3 1073073558#1 1072844430#0 1084242808#2 -586136339#2 329694559#2 1084242794#1 953108141#8 474841418#0 329988460#4 1073083271 806940760#1 165325605#0 340605395#3 340606206 -463677565#1 41691765#1 992579641#0 1084242785#1 1061395652#2 1080055532 244648192#1 481494291#1 -40325362#0 1082150047#0 337432401#3 1080024435#1 477893921#0 -924892084 481494962#1 37852825 -792959186#0 -165325605#7 1080053550#3 806940751#4 -447792018#1 704194097#0 329694555#7 1090298890#0 1080053551 398792509#0 1084242782#0 -111771067#2 -1051822951#9 -463676555#2 1084242804#3 1061395643#2 -1090298422#2 733125585#6 20112427#1 1080279609#1 -454002561#1 1080077827#1 479286735#1 37852830 704194124#0 477794900#1 1073080549#1 1072863585 347724804 1073106708 -37997321#0 37997315#0 -437207231 -1026106360#1 -447793050 998268054#3 -244492478 129810095#2 463677565#0 1090296256#1 1090296260#7 -111771071#2 1051822951#4 1080077826#3 477773267 806940775#0 20112451#3 1051822951#5 77688235#0 -20112451#5 477773266#0 112850603 673699710#4 -37997318 1093161751#0 37852832#3 1084242800 20112427#4 1073080550#1 134811810#6 704194087#1 704194123#1 329694559#0 1072863581#2 1061395644#1 4320473#10 25367086#1 456874546#2 1088224493#1 1084242804#2 37918515#1 -1061395644#2 1051822951#8 -473733101#4 -37997522 -329988460#3 35165656 19899867 1080268302#1 477756777 1080053563#0 -37807547#1 1080078921#1 1083559347#1 704194094#1 37918515#0 133806980#3 1080024441#0 1083353193#1 1072839936#1 479293889 1080053995 1061395643#3 704214838#1 704194096#1 806940746#0 -129810095#2 4687566#1 806940756#4 20112449#1 -1093574969#0 1090296254#1 481494298#1 806940757#1 1080055538#0 477799909#0 37997522 766379902 -37852846#1 474841418#1 477911580#2 -41651758#5 -244648193 25367021#2 -329694553#1 1026106360#0 1080053561#1 37722302#0 25367028#4 1093161753#0 1090298425#2 1080018017 165217839#2 961358247 -37852832#4 1090296245#1 806940743 20112439#3 -1080274568#0 1080292020#0 20178495#1 1084242788#0 -447791868 454002561#0 -406830687 1073101739#1 -165217829#4 19899281#2 1080053558#1 -329694555#3 463679894#0 340606442#1 133806980#1 -975251637#0 704194086#2 329988459#7 1061398534#0 1072839936#8 806940746#1 1083353194#0 -329694555#4 111771067#4 473733101#1 1093416731 1073080555#1 -37918515#1 340606205#1 244648182#1 -25367021#4 455083968#1 704194097#2 -41651758#3 1042466503#2 806940751#1 -41258976#4 -21280706#4 953108141#4 766379892 -41691766#0 1082150523#0 -936644261 1084242802#1 704194093#1 1053723952#2 479285593#0 1073073558#2 477893922#0 329694555#6 329694556#2 -924892081#1 40331155#1 806940775#1 1066503152#1 1080053550#2 1080053556 1050419190#0 477794900#3 1088224493#0 766379899 -1073079250 1053723952#1 673699710#1 704194125#0 961370196 1080292019#2 766379894 313629696 406830689 481492405#4 1073080550#0 -1051822951#8 1051147172#4 37807547#1 337432405 37852841#0 481492405#2 306673550 463677565#1 -1092666574#0 -1041940066#8 37997322 77689003#2 1084242786#1 1090298420#0 1090298426#1 37849001 766379890 329988459#2 337432404#2 479286963 1073083270#1 330150435#8 1072839936#0 1080077825#1 1093574969#0 456874546#1 936656919 1061395642 20112467#2 1072839936#6 337432406 1061395644#2 1088444983#1 -20170650 -354710422#1 -329694555#1 1072839940#1 806940755#3 25366945#1 447793021#1 477764580#1 -447793051 455084003#1 1088445394 1051147172#13 329694554#1 463825907#1 1080024443 330150434#8 -673699710#4 37997321#0 329989224#0 -1051822950#8 548252185#0-AddedOffRampEdge 337432399 244648183#1 766379891 477767263#1 1090296244#0 481492995#1 103974916 37852846#1 -37918524 -354710423#2 337432401#1 1080287374 1061395643#1 366836391#0 1093416733 -165325605#1 -1072844440#1 -329694557 473733101#2 4687566#0 477794905#1 -165217829#1 1090298425#0 77688235#1 104453157#0 477807555 573448691#0 1080055538#2 -329694554#3 -1041940066#5 475354379#0 477911581 1080055530 479286503#1 406830687 -37852832#1 1090298890#2 477745731 1083351562#0 -766379896 440536831 1080020851#3 -103974916 -975251637#2 -1051822951#2 20112442#3 329694554#2 1083353194#2 1073101741 1080024441#4 -766379893 806924890#6 975251637#2 20178595#1 479286505 1072839937#2 -766379890 1082125455#2 37918524 477767263#2 244648183#6 1080077831#1 231387460#0 1080315674#1 1084242781#2 41258973#4 25367384 806940761#0 1073080556 -1076375033 1090296251#1 40337455#2 104456616#1 481492222#1 19899376#1 1080077826#0 -37918514#0 477773265#0 437207231 162975557#1 455083970#1 453949527 -37918514#1 331907542#4 -998268054#2 936656920 447792019 -25367021#2 244648188 111771067#1 -40332814 -25367028#1 -998268054#1 329694555#3 784099214#0 477911580#3 340606205#0 479286736 244648195#0 1084242799#3 -37997322 -1080024436#0 477912389#1 244648189 -1093574970#0 477890300#0 -25367021#3 77689003#1 19899276#0 1082143328#2 481494962#0 77689455#2 1083350786 725230629#3 1072839941 1072839936#7 1080053555 -37918518#2 -454002562#1 -1080279608#1 1050419190#2 477799904 20112439#5 -1083351562#0 330153472#0 478155231#0 1073101739#2 -39442470#0 1083354147#1 479285592#0 704194086#0 231387458#1 340606208#0 -1093161750#0 1084242794#0 1090298420#1 244648195#2 -456874546#2 -1080315674#1 -1083350783 1080292016#1 1090298428#0 -784099214#1 -329694555#6 1080024436#2 447793049 1051161290#0 1093364884 477913391 329694559#3 477911578#1 1090298428#2 37852846#0 481492995#0 806940752#0 -329694554#0 111771071#2 244648193 313629863#0 -113861078#3 20112449#3 104453157#2 20112623#0 -41691765#0 -456874546#1 1066503153#1 463677569#3 -20112623#0 477915723 475354379#1 1061398997#4 1090298888#1 331907543#3 -40332813 477767263#4 1051147172#14 -1041940066#3 1084242779 103896396#8 1093364881#0 21280706#4 479286506#1 133806980#4 -1080055538#1 1050419189#1 -21280706#3"/>
    <!-- id="1634158" name="Montréal" -->
    <taz id="1634158" edges="231387460#0 -37807547#1 26026751#2 329694552#1 26026751#0 231387458#0 575547253#0 37953798#1 463679894#0 200638835#0 337432401#6 92352267#0 231387458#1 37953798#0 -37956453 728796869#0 453954922 37956453 37807547#1 231387458#2"/>
    <!-- id="8805747" name="Le Sud-Ouest" -->