<?xml version="1.0" encoding="UTF-8"?>

<!-- generated on 2022-09-25 14:36:45.557614 by $Id: ptlines2flows.py v1_3_1+0313-ccb31df3eb jakob.erdmann@dlr.de 2019-09-02 13:26:32 +0200 $ v1_14_1+0000-f654d7b963e
  options: 
-->

<routes xmlns:xsi="http://www.w3.org/2001/XMLSchema-instance" xsi:noNamespaceSchemaLocation="http://sumo.dlr.de/xsd/routes_file.xsd">
    <vType id="pt_bus" vClass="bus" speedFactor="0.95"/>
    <vType id="pt_tram" vClass="tram" speedFactor="1.0"/>
    <vType id="pt_train" vClass="rail"/>
    <vType id="pt_subway" vClass="rail_urban"/>
    <vType id="pt_light_rail" vClass="rail_urban"/>
    <vType id="pt_monorail" vClass="rail"/>
    <vType id="pt_trolleybus" vClass="bus" speedFactor="0.95"/>
    <vType id="pt_minibus" vClass="bus" speedFactor="0.95"/>
    <vType id="pt_share_taxi" vClass="taxi" speedFactor="0.95"/>
    <vType id="pt_aerialway" vClass="bus"/>
    <vType id="pt_ferry" vClass="ship"/>
    <trip id="1_bus_747-E:0" type="pt_bus" depart="15" departLane="best" from="792160913#1" to="-41258976#2">
        <stop busStop="2106085874" duration="30"/>
        <stop busStop="-6010970018" duration="30"/>
    </trip>
    <trip id="4_bus_165-N:0" type="pt_bus" depart="27" departLane="best" from="-165217827#4" to="727849147#0">
        <stop busStop="-504318025" duration="30"/>
        <stop busStop="-6010971144" duration="30"/>
        <stop busStop="-1457825329" duration="30"/>
        <stop busStop="1457813196" duration="30"/>
        <stop busStop="6010966218" duration="30"/>
    </trip>
    <trip id="6_subway_1:0" type="pt_subway" depart="52" departLane="best" from="164831271" to="784099214#1">
        <stop busStop="246656713" duration="30"/>
        <stop busStop="246656708" duration="30"/>
        <stop busStop="246656707" duration="30"/>
        <stop busStop="246655684" duration="30"/>
        <stop busStop="246654576" duration="30"/>
        <stop busStop="26232890" duration="30"/>
        <stop busStop="264271702" duration="30"/>
        <stop busStop="218356349" duration="30"/>
        <stop busStop="218356337" duration="30"/>
        <stop busStop="218283857" duration="30"/>
        <stop busStop="213403939" duration="30"/>
        <stop busStop="213403941" duration="30"/>
        <stop busStop="5228487326" duration="30"/>
        <stop busStop="208949406" duration="30"/>
        <stop busStop="208949390" duration="30"/>
        <stop busStop="208949385" duration="30"/>
        <stop busStop="208949381" duration="30"/>
        <stop busStop="208949374" duration="30"/>
        <stop busStop="213329687" duration="30"/>
        <stop busStop="-3676828784" duration="30"/>
        <stop busStop="213331953" duration="30"/>
        <stop busStop="-311564344" duration="30"/>
        <stop busStop="311564349" duration="30"/>
        <stop busStop="-2471652365" duration="30"/>
        <stop busStop="225689808" duration="30"/>
        <stop busStop="-225690774" duration="30"/>
        <stop busStop="311564466" duration="30"/>
    </trip>
    <trip id="7_bus_107-N:0" type="pt_bus" depart="55" departLane="best" from="1042470293#0" to="37722302#1">
        <stop busStop="2091616663" duration="30"/>
        <stop busStop="2687686469" duration="30"/>
        <stop busStop="2687686489" duration="30"/>
        <stop busStop="5754358290" duration="30"/>
        <stop busStop="5754358294" duration="30"/>
        <stop busStop="427618244" duration="30"/>
        <stop busStop="427618243" duration="30"/>
        <stop busStop="427618242" duration="30"/>
    </trip>
    <trip id="8_bus_107-S:0" type="pt_bus" depart="58" departLane="best" from="-354710422#0" to="-1042470293#0">
        <stop busStop="-6010969844" duration="30"/>
        <stop busStop="-427618245" duration="30"/>
        <stop busStop="-5754358296" duration="30"/>
        <stop busStop="-5754358295" duration="30"/>
        <stop busStop="5754358289" duration="30"/>
        <stop busStop="-2687686486" duration="30"/>
        <stop busStop="-2701338580" duration="30"/>
        <stop busStop="-2091616661" duration="30"/>
    </trip>
    <trip id="9_bus_24-E:0" type="pt_bus" depart="60" departLane="best" from="561490751#0" to="165217870#1">
        <stop busStop="6010981247" duration="30"/>
        <stop busStop="6010979145" duration="30"/>
        <stop busStop="6010971302" duration="30"/>
        <stop busStop="6010965396" duration="30"/>
        <stop busStop="6010964910" duration="30"/>
    </trip>
    <trip id="10_bus_24-O:0" type="pt_bus" depart="93" departLane="best" from="-465408860#0" to="-329067231#5">
        <stop busStop="-6010970054" duration="30"/>
        <stop busStop="-6010971829" duration="30"/>
        <stop busStop="-6010981492" duration="30"/>
        <stop busStop="-6010981038" duration="30"/>
        <stop busStop="6010968874" duration="30"/>
        <stop busStop="-6010980155" duration="30"/>
    </trip>
    <trip id="11_bus_144-O:0" type="pt_bus" depart="98" departLane="best" from="465159973" to="165217772#1">
        <stop busStop="6010980478" duration="30"/>
        <stop busStop="6010967053" duration="30"/>
    </trip>
    <trip id="12_bus_144-E:0" type="pt_bus" depart="102" departLane="best" from="329694559#0" to="143920959#0">
        <stop busStop="6010967076" duration="30"/>
        <stop busStop="6010974370" duration="30"/>
        <stop busStop="6010978061" duration="30"/>
        <stop busStop="6010970373" duration="30"/>
        <stop busStop="6010965736" duration="30"/>
    </trip>
    <trip id="13_bus_427-E:0" type="pt_bus" depart="119" departLane="best" from="330150736#0" to="455083970#1">
        <stop busStop="6010966040" duration="30"/>
        <stop busStop="6010977969" duration="30"/>
        <stop busStop="6010971108" duration="30"/>
        <stop busStop="6010975333" duration="30"/>
    </trip>
    <trip id="14_bus_427-O:0" type="pt_bus" depart="125" departLane="best" from="455083984#2" to="330150736#0">
        <stop busStop="4030794085" duration="30"/>
        <stop busStop="6010968827" duration="30"/>
        <stop busStop="-6010981282" duration="30"/>
        <stop busStop="6010966040" duration="30"/>
    </trip>
    <trip id="15_subway_1:1" type="pt_subway" depart="131" departLane="best" from="784099214#1" to="-164831271">
        <stop busStop="311564466" duration="30"/>
        <stop busStop="-225690774" duration="30"/>
        <stop busStop="-225689808" duration="30"/>
        <stop busStop="-2471652365" duration="30"/>
        <stop busStop="-311564349" duration="30"/>
        <stop busStop="-311564344" duration="30"/>
        <stop busStop="-213331953" duration="30"/>
        <stop busStop="-5330993593" duration="30"/>
        <stop busStop="213329687" duration="30"/>
        <stop busStop="-208949374" duration="30"/>
        <stop busStop="-208949381" duration="30"/>
        <stop busStop="-208949385" duration="30"/>
        <stop busStop="-208949390" duration="30"/>
        <stop busStop="-208949406" duration="30"/>
        <stop busStop="-5228487326" duration="30"/>
        <stop busStop="-213403941" duration="30"/>
        <stop busStop="-213403939" duration="30"/>
        <stop busStop="218283857" duration="30"/>
        <stop busStop="-218356337" duration="30"/>
        <stop busStop="-218356349" duration="30"/>
        <stop busStop="-264271702" duration="30"/>
        <stop busStop="-26232890" duration="30"/>
        <stop busStop="246654576" duration="30"/>
        <stop busStop="-246655684" duration="30"/>
        <stop busStop="-246656707" duration="30"/>
        <stop busStop="-246656708" duration="30"/>
        <stop busStop="-246656713" duration="30"/>
    </trip>
    <trip id="16_bus_150-O:0" type="pt_bus" depart="132" departLane="best" from="455083984#2" to="165217839#2">
        <stop busStop="4030794085" duration="30"/>
        <stop busStop="6010968827" duration="30"/>
        <stop busStop="6010969566" duration="30"/>
        <stop busStop="445067518" duration="30"/>
        <stop busStop="6010968427" duration="30"/>
        <stop busStop="6010978235" duration="30"/>
        <stop busStop="6010968869" duration="30"/>
        <stop busStop="6010973662" duration="30"/>
    </trip>
    <trip id="17_bus_150-E:0" type="pt_bus" depart="133" departLane="best" from="394910074#0" to="455083970#1">
        <stop busStop="6010973662@8873279" duration="30"/>
        <stop busStop="6010973748" duration="30"/>
        <stop busStop="6010972047" duration="30"/>
        <stop busStop="6010971108" duration="30"/>
        <stop busStop="6010975333" duration="30"/>
    </trip>
    <trip id="18_bus_165-S:0" type="pt_bus" depart="136" departLane="best" from="453745802" to="-455083993#2">
        <stop busStop="1465572617" duration="30"/>
        <stop busStop="6010975324" duration="30"/>
        <stop busStop="6010970338" duration="30"/>
        <stop busStop="504318024" duration="30"/>
        <stop busStop="6010977969" duration="30"/>
        <stop busStop="6010977887" duration="30"/>
        <stop busStop="-6010965967" duration="30"/>
        <stop busStop="-504318025@8873299" duration="30"/>
    </trip>
    <trip id="19_bus_15-E:0" type="pt_bus" depart="139" departLane="best" from="394910074#0" to="329694554#11">
        <stop busStop="6010966061" duration="30"/>
        <stop busStop="6010977514" duration="30"/>
        <stop busStop="6010968682" duration="30"/>
        <stop busStop="6010975640" duration="30"/>
    </trip>
    <trip id="20_bus_15-O:0" type="pt_bus" depart="160" departLane="best" from="329384217#8" to="165217839#2">
        <stop busStop="6010973621" duration="30"/>
        <stop busStop="6010969519" duration="30"/>
        <stop busStop="6010981014" duration="30"/>
        <stop busStop="6010970071" duration="30"/>
        <stop busStop="6010965893" duration="30"/>
        <stop busStop="6010966061@9320162" duration="30"/>
    </trip>
    <trip id="21_bus_57-E:0" type="pt_bus" depart="165" departLane="best" from="330150435#0" to="20113489#1">
        <stop busStop="6010974358" duration="30"/>
        <stop busStop="6010981014" duration="30"/>
        <stop busStop="6010970071" duration="30"/>
        <stop busStop="2519454983" duration="30"/>
        <stop busStop="6010977514" duration="30"/>
        <stop busStop="6010968682" duration="30"/>
        <stop busStop="6010966051" duration="30"/>
        <stop busStop="6010981200" duration="30"/>
        <stop busStop="-6010965405" duration="30"/>
        <stop busStop="6010965221" duration="30"/>
        <stop busStop="2264682032" duration="30"/>
        <stop busStop="6010971347" duration="30"/>
        <stop busStop="-6010968609" duration="30"/>
        <stop busStop="6274677575" duration="30"/>
        <stop busStop="6010975289" duration="30"/>
        <stop busStop="2091616655" duration="30"/>
    </trip>
    <trip id="22_bus_57-O:0" type="pt_bus" depart="166" departLane="best" from="-1042470293#2" to="-20113825#0">
        <stop busStop="-2687686456" duration="30"/>
        <stop busStop="-6010980123" duration="30"/>
    </trip>
    <trip id="23_bus_61-O:0" type="pt_bus" depart="173" departLane="best" from="360802894#1" to="122076249">
        <stop busStop="6010981007" duration="30"/>
        <stop busStop="5754358293" duration="30"/>
        <stop busStop="5754358292" duration="30"/>
        <stop busStop="5754358289@9320523" duration="30"/>
        <stop busStop="2687686486" duration="30"/>
        <stop busStop="2687686451" duration="30"/>
    </trip>
    <trip id="24_bus_61-E:0" type="pt_bus" depart="201" departLane="best" from="122076249" to="360802894#1">
        <stop busStop="2687686460" duration="30"/>
        <stop busStop="2687686489" duration="30"/>
        <stop busStop="5754358290" duration="30"/>
        <stop busStop="5754358291" duration="30"/>
        <stop busStop="6274677573" duration="30"/>
    </trip>
    <trip id="27_bus_66-S:0" type="pt_bus" depart="222" departLane="best" from="48678910#0" to="-455083993#2">
        <stop busStop="1465572617@9320534" duration="30"/>
        <stop busStop="6010975324" duration="30"/>
        <stop busStop="6010970338" duration="30"/>
        <stop busStop="504318024" duration="30"/>
        <stop busStop="6010977969" duration="30"/>
        <stop busStop="6010974344" duration="30"/>
        <stop busStop="6010977887" duration="30"/>
        <stop busStop="-6010965967" duration="30"/>
        <stop busStop="-4034535844" duration="30"/>
    </trip>
    <trip id="28_bus_66-N:0" type="pt_bus" depart="227" departLane="best" from="1051530916#0" to="727849147#0">
        <stop busStop="6010977887@9320535" duration="30"/>
        <stop busStop="-6010965967" duration="30"/>
        <stop busStop="-4034535844" duration="30"/>
        <stop busStop="-6010971144" duration="30"/>
        <stop busStop="-1457825329" duration="30"/>
        <stop busStop="1457813196" duration="30"/>
        <stop busStop="6010966218" duration="30"/>
    </trip>
    <trip id="32_bus_74-N:0" type="pt_bus" depart="326" departLane="best" from="37722304" to="37722302#1">
        <stop busStop="2687686489" duration="30"/>
        <stop busStop="5754358290" duration="30"/>
        <stop busStop="5754358294" duration="30"/>
        <stop busStop="427618244" duration="30"/>
        <stop busStop="427618243" duration="30"/>
        <stop busStop="427618242" duration="30"/>
    </trip>
    <trip id="33_bus_75-N:0" type="pt_bus" depart="331" departLane="best" from="456353760#1" to="37722302#1">
        <stop busStop="427618243" duration="30"/>
        <stop busStop="427618242" duration="30"/>
    </trip>
    <trip id="37_bus_90-O:0" type="pt_bus" depart="365" departLane="best" from="-329694557" to="-92352264">
        <stop busStop="-6010975601" duration="30"/>
        <stop busStop="-6010980150" duration="30"/>
        <stop busStop="-6010973708" duration="30"/>
        <stop busStop="-6010972616" duration="30"/>
    </trip>
    <trip id="38_bus_90-E:0" type="pt_bus" depart="371" departLane="best" from="165217874" to="92352263#2">
        <stop busStop="6010969833" duration="30"/>
        <stop busStop="6010970824" duration="30"/>
        <stop busStop="6010965782" duration="30"/>
        <stop busStop="6010967477" duration="30"/>
    </trip>
    <trip id="39_bus_104-O:0" type="pt_bus" depart="381" departLane="best" from="329694558" to="-329067231#5">
        <stop busStop="2519449677" duration="30"/>
        <stop busStop="6010974370" duration="30"/>
        <stop busStop="-6010980155" duration="30"/>
    </trip>
    <trip id="40_bus_104-E:0" type="pt_bus" depart="383" departLane="best" from="561490751#0" to="165217839#2">
        <stop busStop="6010981247" duration="30"/>
        <stop busStop="6010968565" duration="30"/>
        <stop busStop="2519449678" duration="30"/>
    </trip>
    <trip id="41_bus_108-E:0" type="pt_bus" depart="388" departLane="best" from="509777703#0" to="329694559#3">
        <stop busStop="6010965695" duration="30"/>
        <stop busStop="913940068" duration="30"/>
        <stop busStop="443938658" duration="30"/>
        <stop busStop="6010968869" duration="30"/>
    </trip>
    <trip id="42_bus_108-O:0" type="pt_bus" depart="389" departLane="best" from="-329694557" to="463671314#1">
        <stop busStop="-6010981242" duration="30"/>
        <stop busStop="6010981721" duration="30"/>
        <stop busStop="6010970060" duration="30"/>
        <stop busStop="6010970078" duration="30"/>
    </trip>
    <trip id="43_bus_138-E:0" type="pt_bus" depart="406" departLane="best" from="561490751#0" to="165217839#2">
        <stop busStop="6010981247" duration="30"/>
        <stop busStop="6010968565" duration="30"/>
        <stop busStop="2519449678" duration="30"/>
    </trip>
    <trip id="44_bus_138-O:0" type="pt_bus" depart="418" departLane="best" from="329694558" to="-329067231#5">
        <stop busStop="2519449677" duration="30"/>
        <stop busStop="6010974370" duration="30"/>
        <stop busStop="-6010980155" duration="30"/>
    </trip>
    <trip id="45_bus_166-N:0" type="pt_bus" depart="422" departLane="best" from="-41258974#1" to="727849147#0">
        <stop busStop="-6010971144" duration="30"/>
        <stop busStop="-1457825329" duration="30"/>
        <stop busStop="1457813196" duration="30"/>
        <stop busStop="6010966218" duration="30"/>
    </trip>
    <trip id="46_bus_166-S:0" type="pt_bus" depart="437" departLane="best" from="453745802" to="-455083994#2">
        <stop busStop="1465572617" duration="30"/>
        <stop busStop="6010975324" duration="30"/>
        <stop busStop="6010970338" duration="30"/>
        <stop busStop="504318024" duration="30"/>
        <stop busStop="6010977969" duration="30"/>
        <stop busStop="6010974344" duration="30"/>
        <stop busStop="6010977887" duration="30"/>
        <stop busStop="-6010965967" duration="30"/>
        <stop busStop="-6010981282" duration="30"/>
    </trip>
    <trip id="51_bus_36-E:0" type="pt_bus" depart="485" departLane="best" from="-545490137#1" to="133806980#5">
        <stop busStop="-2687914648" duration="30"/>
        <stop busStop="-2687914652" duration="30"/>
        <stop busStop="-6274677571" duration="30"/>
        <stop busStop="-2264682033" duration="30"/>
        <stop busStop="-6010970163" duration="30"/>
        <stop busStop="6010975602" duration="30"/>
        <stop busStop="6010978137" duration="30"/>
        <stop busStop="6010975695" duration="30"/>
    </trip>
    <trip id="52_bus_36-O:0" type="pt_bus" depart="497" departLane="best" from="975251637#1" to="545490137#1">
        <stop busStop="6010969810" duration="30"/>
        <stop busStop="6010965221" duration="30"/>
        <stop busStop="2264682032" duration="30"/>
        <stop busStop="2687914658" duration="30"/>
        <stop busStop="2687914654" duration="30"/>
        <stop busStop="2687914649" duration="30"/>
    </trip>
    <trip id="53_bus_35-E:0" type="pt_bus" depart="508" departLane="best" from="-545490137#1" to="360802894#1">
        <stop busStop="-2687914648" duration="30"/>
        <stop busStop="-2687914652" duration="30"/>
        <stop busStop="-6274677571" duration="30"/>
        <stop busStop="-6010972098" duration="30"/>
        <stop busStop="-6010969834" duration="30"/>
        <stop busStop="-6010966435" duration="30"/>
        <stop busStop="6010970597" duration="30"/>
        <stop busStop="6010967058" duration="30"/>
        <stop busStop="6010974583" duration="30"/>
        <stop busStop="5754358290" duration="30"/>
        <stop busStop="5754358291" duration="30"/>
        <stop busStop="6274677573" duration="30"/>
    </trip>
    <trip id="54_bus_35-O:0" type="pt_bus" depart="517" departLane="best" from="-360802894#1" to="545490137#1">
        <stop busStop="-6010981007" duration="30"/>
        <stop busStop="-5754358293" duration="30"/>
        <stop busStop="-5754358292" duration="30"/>
        <stop busStop="5754358289" duration="30"/>
        <stop busStop="-6010969842" duration="30"/>
        <stop busStop="-6010968651" duration="30"/>
        <stop busStop="-6010981124" duration="30"/>
        <stop busStop="-6010970833" duration="30"/>
        <stop busStop="6010965891" duration="30"/>
        <stop busStop="6010964698" duration="30"/>
        <stop busStop="2687914658" duration="30"/>
        <stop busStop="2687914654" duration="30"/>
        <stop busStop="2687914649" duration="30"/>
    </trip>
</routes>
