<?xml version="1.0" encoding="UTF-8"?>

<!-- generated on 2022-09-13 07:43:11 by Eclipse SUMO polyconvert Version 1.14.1
<configuration xmlns:xsi="http://www.w3.org/2001/XMLSchema-instance" xsi:noNamespaceSchemaLocation="http://sumo.dlr.de/xsd/polyconvertConfiguration.xsd">

    <input>
        <net-file value="osm.net.xml"/>
        <osm-files value="osm_bbox.osm.xml"/>
        <osm.keep-full-type value="true"/>
        <type-file value="C:\Program%20Files%20(x86)\Eclipse\Sumo\data\typemap\osmPolyconvert.typ.xml"/>
    </input>

    <output>
        <output-file value="osm.poly.xml"/>
    </output>

    <report>
        <verbose value="true"/>
    </report>

</configuration>
-->

<additional xmlns:xsi="http://www.w3.org/2001/XMLSchema-instance" xsi:noNamespaceSchemaLocation="http://sumo.dlr.de/xsd/additional_file.xsd">
    <location netOffset="-605094.49,-5035089.76" convBoundary="-211.36,-398.04,3219.31,3375.83" origBoundary="-73.658444,45.457691,-73.614306,45.491722" projParameter="+proj=utm +zone=18 +ellps=WGS84 +datum=WGS84 +units=m +no_defs"/>

    <poly id="1002857410" type="building.house" color="255,230,230" fill="1" layer="-1.00" shape="629.481141,2032.946140 635.853578,2043.099383 622.967603,2051.139209 616.595155,2040.985980 629.481141,2032.946140"/>
    <poly id="1002857411" type="building.house" color="255,230,230" fill="1" layer="-1.00" shape="621.453609,2057.948074 612.538363,2043.273593 600.162332,2050.744186 609.085411,2065.418781 621.453609,2057.948074"/>
    <poly id="1002857412" type="building.house" color="255,230,230" fill="1" layer="-1.00" shape="591.688005,2073.038230 604.475246,2065.285612 598.571298,2055.629249 585.792047,2063.370902 591.688005,2073.038230"/>
    <poly id="1002857413" type="building.house" color="255,230,230" fill="1" layer="-1.00" shape="589.398684,2074.822193 577.402556,2082.021403 570.412949,2070.446514 582.409089,2063.247290 589.398684,2074.822193"/>
    <poly id="1002857414" type="building.house" color="255,230,230" fill="1" layer="-1.00" shape="562.470463,2094.127527 566.588579,2080.294749 553.286669,2076.359263 549.168581,2090.192050 562.470463,2094.127527"/>
    <poly id="1002857415" type="building.house" color="255,230,230" fill="1" layer="-1.00" shape="544.514008,2076.900660 551.698122,2068.553599 542.079983,2060.335026 534.903688,2068.682229 544.514008,2076.900660"/>
    <poly id="1002857416" type="building.house" color="255,230,230" fill="1" layer="-1.00" shape="534.760443,2060.467485 545.044314,2054.672934 538.727457,2043.531687 528.443574,2049.326248 534.760443,2060.467485"/>
    <poly id="1002857417" type="building.house" color="255,230,230" fill="1" layer="-1.00" shape="529.687311,2044.635357 538.788266,2038.987588 531.540626,2027.408407 522.447291,2033.067426 529.687311,2044.635357"/>
    <poly id="1002857418" type="building.house" color="255,230,230" fill="1" layer="-1.00" shape="519.290722,2031.102938 529.419470,2024.772339 522.657971,2014.034803 512.529214,2020.365414 519.290722,2031.102938"/>
    <poly id="1002857419" type="building.house" color="255,230,230" fill="1" layer="-1.00" shape="507.901178,2017.109329 518.745817,2010.512933 511.890156,1999.329316 501.045507,2005.925724 507.901178,2017.109329"/>
    <poly id="1002857420" type="building.house" color="255,230,230" fill="1" layer="-1.00" shape="499.057193,2000.502597 509.695438,1994.558367 503.736629,1983.967708 493.098372,1989.911948 499.057193,2000.502597"/>
    <poly id="1002857421" type="building.house" color="255,230,230" fill="1" layer="-1.00" shape="486.969734,1977.796001 497.818681,1971.410782 490.087530,1958.356640 479.238569,1964.741871 486.969734,1977.796001"/>
    <poly id="1002857422" type="building.house" color="255,230,230" fill="1" layer="-1.00" shape="478.529457,1960.884934 486.547950,1956.385729 480.641718,1945.918219 472.623215,1950.417431 478.529457,1960.884934"/>
    <poly id="1002857423" type="building.house" color="255,230,230" fill="1" layer="-1.00" shape="469.924517,1945.860281 478.500731,1941.203751 472.759157,1930.705679 464.183121,1935.351108 469.924517,1945.860281"/>
    <poly id="1002857424" type="building.house" color="255,230,230" fill="1" layer="-1.00" shape="600.619614,2013.824149 614.308946,2005.897814 609.050795,1996.885744 600.145515,2002.047746 598.131815,1998.602231 593.355564,2001.366708 600.619614,2013.824149"/>
    <poly id="1002857425" type="building.house" color="255,230,230" fill="1" layer="-1.00" shape="590.476989,2004.252030 596.916866,2014.584169 585.098504,2021.897488 578.658616,2011.565361 590.476989,2004.252030"/>
    <poly id="1002857426" type="building.house" color="255,230,230" fill="1" layer="-1.00" shape="562.720016,2018.898286 570.978277,2032.205878 579.588746,2026.905522 577.609634,2023.727302 580.761662,2021.780049 574.482527,2011.650663 562.720016,2018.898286"/>
    <poly id="1002857427" type="building.house" color="255,230,230" fill="1" layer="-1.00" shape="557.818468,2008.203120 573.800798,1998.737267 567.079766,1987.455838 551.097418,1996.921708 557.818468,2008.203120"/>
    <poly id="1002857428" type="building.house" color="255,230,230" fill="1" layer="-1.00" shape="548.252511,1992.695445 561.096994,1984.799233 554.125452,1973.535830 541.280770,1981.443166 548.252511,1992.695445"/>
    <poly id="1002857429" type="building.house" color="255,230,230" fill="1" layer="-1.00" shape="539.160263,1977.373560 553.694673,1968.472273 545.864052,1955.760880 535.342345,1962.207087 537.077569,1965.014468 534.518234,1966.582766 536.154285,1969.244013 535.340026,1971.175049 539.160263,1977.373560"/>
    <poly id="1002858626" type="building.house" color="255,230,230" fill="1" layer="-1.00" shape="525.466322,1953.506360 539.127783,1945.379363 531.303081,1932.312482 517.641603,1940.439496 525.466322,1953.506360"/>
    <poly id="1002858627" type="building.house" color="255,230,230" fill="1" layer="-1.00" shape="515.050263,1936.473108 526.347260,1929.484270 518.178998,1916.389402 506.897619,1923.378519 515.050263,1936.473108"/>
    <poly id="1002858628" type="building.house" color="255,230,230" fill="1" layer="-1.00" shape="499.309289,1916.705494 510.305604,1909.467089 500.256638,1894.306984 489.260310,1901.545406 499.309289,1916.705494"/>
    <poly id="1003283545" type="building.house" color="255,230,230" fill="1" layer="-1.00" shape="788.375428,2197.069967 796.781495,2192.299875 799.522616,2197.102375 805.797584,2193.540986 812.897796,2205.940370 798.224410,2214.283072 788.375428,2197.069967"/>
    <poly id="1003283546" type="building.house" color="255,230,230" fill="1" layer="-1.00" shape="766.893925,2160.846807 776.409187,2176.531796 782.822267,2172.661555 781.430096,2170.382185 787.037406,2167.009549 778.906516,2153.603782 766.893925,2160.846807"/>
    <poly id="1003298014" type="building.house" color="255,230,230" fill="1" layer="-1.00" shape="681.805820,2024.537072 694.222203,2017.000639 687.839252,2006.547113 675.415041,2014.083428 681.805820,2024.537072"/>
    <poly id="1003298015" type="building.house" color="255,230,230" fill="1" layer="-1.00" shape="673.897405,2009.501628 688.059846,2001.805675 681.438838,1989.703456 667.276379,1997.399424 673.897405,2009.501628"/>
    <poly id="1003298016" type="building.house" color="255,230,230" fill="1" layer="-1.00" shape="662.663112,1996.054869 673.708541,1989.617695 666.891499,1978.012266 655.853873,1984.449584 662.663112,1996.054869"/>
    <poly id="1003298017" type="building.house" color="255,230,230" fill="1" layer="-1.00" shape="653.066127,1980.546504 668.597391,1971.417785 660.540061,1957.791176 646.856510,1965.828640 649.478789,1970.273455 647.631243,1971.353620 653.066127,1980.546504"/>
    <poly id="1003298018" type="building.house" color="255,230,230" fill="1" layer="-1.00" shape="642.331557,1962.952025 656.743536,1953.904444 648.801249,1941.335502 634.389253,1950.383102 642.331557,1962.952025"/>
    <poly id="1003298019" type="building.house" color="255,230,230" fill="1" layer="-1.00" shape="629.061007,1940.425250 640.416915,1933.659860 630.357211,1915.443342 617.100930,1922.710172 629.061007,1940.425250"/>
    <poly id="1003298020" type="building.house" color="255,230,230" fill="1" layer="-1.00" shape="633.857090,2028.419132 642.651567,2042.836017 652.334716,2036.975958 643.548068,2022.559191 633.857090,2028.419132"/>
    <poly id="1003298021" type="building.house" color="255,230,230" fill="1" layer="-1.00" shape="617.869192,2004.779796 627.305831,1998.704405 617.110523,1982.974882 607.674058,1989.039179 617.869192,2004.779796"/>
    <poly id="1003298022" type="building.house" color="255,230,230" fill="1" layer="-1.00" shape="593.367285,1987.664862 611.617841,1976.748167 603.777137,1963.714258 587.643186,1973.355291 589.826038,1976.970340 587.693780,1978.245761 593.367285,1987.664862"/>
    <poly id="1003298023" type="building.house" color="255,230,230" fill="1" layer="-1.00" shape="586.083331,1969.884081 599.705575,1961.767666 592.504132,1949.766907 578.881873,1957.883337 586.083331,1969.884081"/>
    <poly id="1003298024" type="building.house" color="255,230,230" fill="1" layer="-1.00" shape="578.549125,1953.499307 588.665941,1947.424191 581.082655,1934.883607 570.965640,1940.969846 578.549125,1953.499307"/>
    <poly id="1003298025" type="building.house" color="255,230,230" fill="1" layer="-1.00" shape="563.536343,1929.031965 578.701532,1920.285812 571.088833,1907.166884 555.915810,1915.912924 563.536343,1929.031965"/>
    <poly id="1003298026" type="building.house" color="255,230,230" fill="1" layer="-1.00" shape="556.319345,1909.585437 566.879793,1904.095613 560.570508,1892.032118 550.010047,1897.521953 556.319345,1909.585437"/>
    <poly id="1003298027" type="building.house" color="255,230,230" fill="1" layer="-1.00" shape="542.997515,1877.534359 541.149028,1878.670103 546.894909,1887.979245 548.727576,1886.854349 550.592318,1889.863942 561.825044,1882.985210 550.204170,1864.142476 538.979428,1871.010251 542.997515,1877.534359"/>
    <poly id="1003298028" type="building.house" color="255,230,230" fill="1" layer="-1.00" shape="598.934561,1891.922055 611.200539,1884.505163 602.885423,1870.852072 590.619429,1878.268981 598.934561,1891.922055"/>
    <poly id="1003298029" type="building.house" color="255,230,230" fill="1" layer="-1.00" shape="587.808438,1863.663949 598.978426,1858.195546 591.978191,1843.986740 581.635937,1849.046800 584.296945,1854.447934 581.632621,1855.747742 583.991281,1860.532586 585.820224,1859.629893 587.808438,1863.663949"/>
    <poly id="1003298030" type="building.house" color="255,230,230" fill="1" layer="-1.00" shape="578.501267,1842.059683 594.698953,1837.475999 590.734699,1823.573887 574.544797,1828.157713 578.501267,1842.059683"/>
    <poly id="1003298031" type="building.house" color="255,230,230" fill="1" layer="-1.00" shape="574.017008,1821.425610 586.686185,1818.393881 583.215263,1803.977777 570.553875,1807.009645 574.017008,1821.425610"/>
    <poly id="1003298032" type="building.house" color="255,230,230" fill="1" layer="-1.00" shape="563.698743,1796.715010 579.205868,1793.219827 575.587828,1777.323256 573.304276,1777.829356 572.197969,1772.954463 558.974350,1775.943557 563.698743,1796.715010"/>
    <poly id="1003298033" type="building.house" color="255,230,230" fill="1" layer="-1.00" shape="522.076122,1801.348958 533.544454,1798.596970 528.954197,1779.605841 517.477831,1782.368817 522.076122,1801.348958"/>
    <poly id="1003298034" type="building.house" color="255,230,230" fill="1" layer="-1.00" shape="522.054076,1818.928976 537.002718,1814.701969 542.346966,1833.483534 537.115352,1834.962429 537.757196,1837.240230 531.520131,1839.002260 529.357198,1831.409201 527.424816,1831.954562 525.956191,1826.773539 524.408833,1827.203137 522.054076,1818.928976"/>
    <poly id="1003300744" type="building.house" color="255,230,230" fill="1" layer="-1.00" shape="641.939578,1873.409835 652.008006,1867.434016 641.073610,1849.158305 631.004978,1855.145251 641.939578,1873.409835"/>
    <poly id="1003300745" type="building.house" color="255,230,230" fill="1" layer="-1.00" shape="615.376680,1831.478659 621.768908,1843.721410 633.102197,1837.844643 630.163411,1832.227667 632.119478,1831.204887 628.665865,1824.590209 615.376680,1831.478659"/>
    <poly id="1003300746" type="building.house" color="255,230,230" fill="1" layer="-1.00" shape="612.997731,1824.648713 609.168620,1810.615510 623.973111,1806.597423 625.637162,1812.704122 622.723230,1814.433108 624.644746,1821.499838 612.997731,1824.648713"/>
    <poly id="1003300747" type="building.house" color="255,230,230" fill="1" layer="-1.00" shape="608.499209,1804.403318 626.318271,1801.502806 624.127639,1788.130606 606.308728,1791.020016 608.499209,1804.403318"/>
    <poly id="1003300748" type="building.house" color="255,230,230" fill="1" layer="-1.00" shape="595.491920,1743.908750 611.670866,1741.847384 613.783130,1738.049035 612.477983,1727.803322 593.737238,1730.177181 595.491920,1743.908750"/>
    <poly id="1003300749" type="building.house" color="255,230,230" fill="1" layer="-1.00" shape="595.412554,1724.004454 609.508046,1722.174723 607.734763,1708.620640 595.927082,1710.155497 596.883015,1717.461559 594.595175,1717.756437 595.412554,1724.004454"/>
    <poly id="1003300750" type="building.house" color="255,230,230" fill="1" layer="-1.00" shape="592.238876,1698.891760 606.893130,1696.382434 602.306406,1669.756841 580.415012,1673.511264 582.388210,1684.946162 587.696398,1684.035340 588.002381,1685.829644 589.923445,1685.495252 592.238876,1698.891760"/>
    <poly id="1003300751" type="building.house" color="255,230,230" fill="1" layer="-1.00" shape="643.523288,1719.457988 655.199302,1716.920855 652.143416,1702.933986 640.467565,1705.460016 643.523288,1719.457988"/>
    <poly id="1003300752" type="building.house" color="255,230,230" fill="1" layer="-1.00" shape="641.359621,1699.840864 656.446658,1696.238775 653.151609,1682.525698 636.196316,1686.574190 637.898831,1693.648348 639.767055,1693.201954 641.359621,1699.840864"/>
    <poly id="1004163594" type="building.house" color="255,230,230" fill="1" layer="-1.00" shape="1306.326770,2114.789498 1314.174726,2114.844699 1313.924421,2149.912496 1306.068882,2149.846053 1306.326770,2114.789498"/>
    <poly id="1004163595" type="building.house" color="255,230,230" fill="1" layer="-1.00" shape="1346.868412,2135.112962 1356.690238,2135.401709 1357.454501,2110.610861 1347.617195,2110.310739 1346.868412,2135.112962"/>
    <poly id="1004163596" type="building.house" color="255,230,230" fill="1" layer="-1.00" shape="1346.283947,2150.683222 1364.527943,2151.737076 1365.180988,2140.424188 1346.944774,2139.370465 1346.283947,2150.683222"/>
    <poly id="1004163597" type="building.house" color="255,230,230" fill="1" layer="-1.00" shape="1344.224554,2165.639500 1345.475856,2159.615340 1349.332198,2160.403046 1350.370606,2155.408770 1363.022200,2158.012514 1360.748095,2169.031211 1344.224554,2165.639500"/>
    <poly id="1004163598" type="building.house" color="255,230,230" fill="1" layer="-1.00" shape="1344.528686,2177.213097 1340.627440,2176.769130 1341.124229,2172.365763 1345.509462,2172.851274 1345.703340,2171.098735 1352.476103,2171.858093 1351.353695,2181.807262 1344.097148,2180.995253 1344.528686,2177.213097"/>
    <poly id="1004163599" type="building.house" color="255,230,230" fill="1" layer="-1.00" shape="1336.294674,2204.088778 1346.078724,2207.521799 1350.512729,2194.983918 1335.055707,2189.554439 1331.894484,2198.491125 1337.567619,2200.476464 1336.294674,2204.088778"/>
    <poly id="1004163600" type="building.house" color="255,230,230" fill="1" layer="-1.00" shape="1293.308685,2171.644322 1296.576624,2160.097916 1315.428985,2165.384806 1313.366528,2172.684311 1309.165090,2171.501830 1307.959390,2175.759832 1293.308685,2171.644322"/>
    <poly id="1004163601" type="building.house" color="255,230,230" fill="1" layer="-1.00" shape="1302.715235,2192.284624 1307.251804,2181.070879 1296.303771,2176.662497 1295.006361,2179.874343 1291.807354,2178.586618 1286.966556,2186.994790 1302.715235,2192.284624"/>
    <poly id="1004163602" type="building.house" color="255,230,230" fill="1" layer="-1.00" shape="1295.510378,2203.186453 1298.739838,2198.062602 1292.543805,2194.179260 1289.611419,2198.841409 1286.996962,2197.196867 1282.241014,2204.750793 1294.292957,2212.289445 1298.751655,2205.208342 1295.510378,2203.186453"/>
    <poly id="1004165437" type="building.house" color="255,230,230" fill="1" layer="-1.00" shape="917.016608,2177.826241 926.230180,2193.761970 935.592517,2188.385891 926.378960,2172.450148 917.016608,2177.826241"/>
    <poly id="1004165438" type="building.house" color="255,230,230" fill="1" layer="-1.00" shape="981.431379,2205.684849 990.593299,2200.605510 981.267991,2183.889897 972.106055,2188.969249 981.431379,2205.684849"/>
    <poly id="1004165439" type="building.house" color="255,230,230" fill="1" layer="-1.00" shape="957.645757,2166.166026 958.649184,2165.538432 960.962926,2169.255846 966.690196,2165.729815 964.932337,2162.888585 968.708402,2160.563118 961.866707,2149.534790 951.344302,2156.013632 957.645757,2166.166026"/>
    <poly id="1004165440" type="building.house" color="255,230,230" fill="1" layer="-1.00" shape="899.458641,2149.103307 910.405842,2142.464860 901.216222,2127.418586 890.277009,2134.046072 899.458641,2149.103307"/>
    <poly id="1004165441" type="building.house" color="255,230,230" fill="1" layer="-1.00" shape="888.043765,2108.882363 878.927122,2092.748305 870.877051,2097.257593 873.063199,2101.128398 871.058406,2102.261408 875.301960,2109.756365 879.019188,2107.674332 881.714145,2112.431638 888.043765,2108.882363"/>
    <poly id="1004165442" type="building.house" color="255,230,230" fill="1" layer="-1.00" shape="876.940292,2034.450433 884.076599,2029.892390 891.001411,2040.644205 886.077815,2043.794923 884.386659,2041.165988 882.173768,2042.584415 876.940292,2034.450433"/>
    <poly id="1004165443" type="building.house" color="255,230,230" fill="1" layer="-1.00" shape="862.234020,2014.599308 871.846901,2008.749506 862.397437,1993.332195 852.784730,1999.170902 862.234020,2014.599308"/>
    <poly id="1004165444" type="building.house" color="255,230,230" fill="1" layer="-1.00" shape="842.420180,2053.281985 851.491786,2048.000887 842.106980,2031.995719 833.035172,2037.287940 842.420180,2053.281985"/>
    <poly id="1004165445" type="building.house" color="255,230,230" fill="1" layer="-1.00" shape="827.801345,2026.853649 836.371922,2022.542002 831.234816,2012.398273 822.672231,2016.698949 827.801345,2026.853649"/>
    <poly id="1004165446" type="building.house" color="255,230,230" fill="1" layer="-1.00" shape="802.433027,1966.583446 801.369522,1965.209752 800.570381,1964.385042 798.960671,1963.413310 795.710765,1962.813979 793.526613,1963.455027 786.078430,1967.963464 801.378018,1993.447471 813.988689,1985.992333 802.433027,1966.583446"/>
    <poly id="1004165447" type="building.house" color="255,230,230" fill="1" layer="-1.00" shape="778.290652,1952.274263 790.329713,1944.876116 780.618528,1929.198933 768.587265,1936.597230 778.290652,1952.274263"/>
    <poly id="1004165448" type="building.house" color="255,230,230" fill="1" layer="-1.00" shape="805.677871,1915.563831 817.679918,1934.469061 830.662797,1926.275674 818.660772,1907.370420 805.677871,1915.563831"/>
    <poly id="1004165449" type="building.house" color="255,230,230" fill="1" layer="-1.00" shape="756.027770,1912.259667 765.737807,1906.678047 753.962913,1886.343205 744.244855,1891.935822 756.027770,1912.259667"/>
    <poly id="1004165450" type="building.house" color="255,230,230" fill="1" layer="-1.00" shape="730.822615,1878.885468 743.259180,1872.027341 732.848940,1853.282446 720.412350,1860.140594 730.822615,1878.885468"/>
    <poly id="1004609006" type="building.house" color="255,230,230" fill="1" layer="-1.00" shape="883.658453,1719.749770 893.116985,1715.197579 890.419907,1709.629008 893.320523,1708.233300 891.582684,1704.658993 894.081317,1703.456532 890.824983,1696.745018 886.876037,1698.645336 884.564057,1693.883387 873.663009,1699.133581 883.658453,1719.749770"/>
    <poly id="1004609007" type="building.house" color="255,230,230" fill="1" layer="-1.00" shape="863.478408,1683.237150 874.990312,1678.852930 867.516951,1659.346141 855.997202,1663.730243 863.478408,1683.237150"/>
    <poly id="1004609008" type="building.house" color="255,230,230" fill="1" layer="-1.00" shape="844.147705,1743.275635 856.247251,1735.100727 849.022954,1724.466157 847.243583,1725.669657 844.794668,1722.072255 843.046936,1723.254064 839.057070,1717.385888 830.484422,1723.186620 844.147705,1743.275635"/>
    <poly id="1004609009" type="building.house" color="255,230,230" fill="1" layer="-1.00" shape="820.625490,1682.414247 829.540233,1678.119496 837.866641,1695.262493 828.951729,1699.568342 820.625490,1682.414247"/>
    <poly id="1004610308" type="building.house" color="255,230,230" fill="1" layer="-1.00" shape="1296.835101,2085.324181 1298.127468,2085.179386 1298.583522,2089.176613 1305.272564,2088.423156 1303.557969,2073.347355 1295.576543,2074.245609 1296.835101,2085.324181"/>
    <poly id="1004610309" type="building.house" color="255,230,230" fill="1" layer="-1.00" shape="1289.567477,2069.932043 1288.104832,2056.594116 1301.309914,2055.150929 1301.804015,2059.671102 1300.221907,2059.844326 1300.811306,2065.199575 1295.211409,2065.804799 1295.590344,2069.278417 1289.567477,2069.932043"/>
    <poly id="1004610310" type="building.house" color="255,230,230" fill="1" layer="-1.00" shape="1343.802598,2033.267612 1338.388332,2019.229258 1325.632991,2024.113850 1328.433784,2031.373534 1330.093960,2030.746015 1332.820167,2037.793293 1335.778745,2036.665481 1335.244957,2045.557797 1343.031324,2046.023161 1343.802598,2033.267612"/>
    <poly id="1004610311" type="building.house" color="255,230,230" fill="1" layer="-1.00" shape="1255.427072,2001.654489 1262.111869,1994.233226 1253.925514,1986.915701 1247.248535,1994.337105 1255.427072,2001.654489"/>
    <poly id="1004610312" type="building.house" color="255,230,230" fill="1" layer="-1.00" shape="1242.815799,1993.417464 1227.356010,1982.576288 1234.813250,1972.012039 1238.776725,1974.790679 1236.774113,1977.634984 1244.368934,1982.953276 1243.375726,1984.358896 1247.277230,1987.103153 1242.815799,1993.417464"/>
    <poly id="1004610313" type="building.house" color="255,230,230" fill="1" layer="-1.00" shape="1213.409229,1973.794410 1200.602939,1965.987571 1205.836621,1957.463744 1215.292452,1963.224677 1214.206882,1965.006573 1217.549536,1967.052356 1213.409229,1973.794410"/>
    <poly id="1004610314" type="building.house" color="255,230,230" fill="1" layer="-1.00" shape="1200.602939,1965.987571 1205.836621,1957.463744 1196.657996,1951.952000 1198.572263,1948.783915 1193.657697,1945.844737 1188.235991,1954.854355 1189.382261,1959.185524 1200.602939,1965.987571"/>
    <poly id="1004610315" type="building.house" color="255,230,230" fill="1" layer="-1.00" shape="1294.664539,1980.882549 1301.148543,1971.935469 1289.524473,1963.570611 1283.040478,1972.517703 1294.664539,1980.882549"/>
    <poly id="1004610316" type="building.house" color="255,230,230" fill="1" layer="-1.00" shape="1277.288543,1966.863859 1283.894661,1957.629897 1270.700540,1948.260550 1264.094432,1957.494526 1277.288543,1966.863859"/>
    <poly id="1004610317" type="landuse.grass" color="194,194,130" fill="1" layer="-3.00" shape="1219.154545,1940.130978 1212.355733,1935.815235 1211.381479,1934.254062 1211.615362,1933.368997 1212.411780,1932.504568 1222.965729,1931.127456 1224.736109,1931.379687 1225.821471,1932.842728 1225.578369,1934.272164 1222.825408,1939.415232 1222.261096,1939.961318 1221.368530,1940.501847 1220.036117,1940.701544 1219.154545,1940.130978"/>
    <poly id="1004610318" type="building.house" color="255,230,230" fill="1" layer="-1.00" shape="1192.532282,1906.564156 1196.843173,1908.681880 1195.968809,1910.456241 1201.582190,1913.218331 1203.014639,1910.342138 1210.457647,1914.013120 1213.841188,1907.180462 1209.321160,1904.948058 1212.178443,1899.184433 1206.231613,1896.261109 1204.167536,1900.426808 1200.383968,1898.562488 1199.469396,1900.402844 1196.352706,1898.860973 1192.532282,1906.564156"/>
    <poly id="1004610319" type="building.house" color="255,230,230" fill="1" layer="-1.00" shape="1195.403723,1895.344377 1187.859661,1906.418392 1173.335961,1896.604469 1177.264522,1890.825620 1180.951600,1893.310610 1183.573314,1889.454388 1190.181988,1893.922458 1191.167946,1892.483369 1195.403723,1895.344377"/>
    <poly id="1004610320" type="building.house" color="255,230,230" fill="1" layer="-1.00" shape="1136.622757,1914.652784 1145.829874,1912.941599 1148.940282,1929.641198 1139.733376,1931.341269 1136.622757,1914.652784"/>
    <poly id="1004610321" type="building.house" color="255,230,230" fill="1" layer="-1.00" shape="1131.962072,1911.028957 1129.278738,1899.581834 1107.270864,1904.699311 1109.268983,1913.212169 1117.314009,1911.336822 1118.006885,1914.282320 1131.962072,1911.028957"/>
    <poly id="1004610322" type="building.house" color="255,230,230" fill="1" layer="-1.00" shape="1095.065211,1904.815167 1092.711420,1896.529668 1112.821309,1890.846624 1115.174889,1899.143240 1095.065211,1904.815167"/>
    <poly id="1004610323" type="building.house" color="255,230,230" fill="1" layer="-1.00" shape="1097.697546,1835.604737 1102.885982,1829.291508 1090.979492,1819.566499 1085.791249,1825.868628 1097.697546,1835.604737"/>
    <poly id="1004610324" type="building.house" color="255,230,230" fill="1" layer="-1.00" shape="1067.059998,1808.260430 1078.777057,1819.482416 1084.665709,1813.369929 1072.956464,1802.148065 1067.059998,1808.260430"/>
    <poly id="1004610325" type="building.house" color="255,230,230" fill="1" layer="-1.00" shape="1065.021344,1798.902333 1062.152013,1786.885350 1077.505419,1783.255435 1080.366906,1795.272293 1065.021344,1798.902333"/>
    <poly id="1004611241" type="landuse.flowerbed" color="194,194,130" fill="1" layer="-3.00" shape="1219.306095,1937.644276 1216.034330,1935.566354 1215.569992,1934.825048 1215.678930,1934.393493 1216.061226,1933.977678 1221.138337,1933.319078 1221.996360,1933.433620 1222.515971,1934.142524 1222.394891,1934.829468 1221.070811,1937.307431 1220.800567,1937.569563 1220.374010,1937.829048 1219.731439,1937.918184 1219.306095,1937.644276"/>
    <poly id="1004611600" type="landuse.grass" color="194,194,130" fill="1" layer="-3.00" shape="879.387679,1635.553957 904.242923,1622.049118 905.745714,1621.485506 906.858149,1621.815441 907.848093,1622.454466 908.475502,1623.265176 911.308304,1631.447548 911.460250,1632.172443 911.242595,1633.024454 910.600313,1633.558138 909.316807,1633.636488 904.450775,1633.821061 899.651524,1634.217907 892.345482,1635.372570 888.833805,1635.913395 885.441373,1636.800730 881.774200,1638.216845 880.897687,1638.268730 879.819085,1638.250529 879.285408,1637.908140 878.961882,1637.158124 878.836005,1636.278091 879.387679,1635.553957"/>
    <poly id="1004611601" type="landuse.flowerbed" color="194,194,130" fill="1" layer="-3.00" shape="903.368693,1627.524076 903.775439,1627.975452 904.016362,1628.524045 904.068764,1629.125020 903.925954,1629.711586 903.604690,1630.217352 903.113161,1630.620228 894.892222,1633.637506 894.258941,1633.637931 893.652671,1633.427669 893.158824,1633.041500 892.816105,1632.502302 892.678102,1631.877658 892.751129,1631.256574 893.034438,1630.683491 893.487635,1630.235516 894.031437,1629.977987 902.257759,1627.105265 902.849898,1627.226387 903.368693,1627.524076"/>
    <poly id="1005079338" type="building.house" color="255,230,230" fill="1" layer="-1.00" shape="1208.171530,1806.602523 1200.598343,1802.762653 1206.978241,1790.268731 1214.559067,1794.119850 1208.171530,1806.602523"/>
    <poly id="1005079339" type="building.house" color="255,230,230" fill="1" layer="-1.00" shape="1195.223953,1800.193530 1203.131598,1787.969945 1189.334343,1779.101767 1181.426527,1791.336479 1195.223953,1800.193530"/>
    <poly id="1005079340" type="building.house" color="255,230,230" fill="1" layer="-1.00" shape="1170.128126,1782.177250 1175.604573,1773.635279 1186.533789,1780.587935 1181.065149,1789.130029 1170.128126,1782.177250"/>
    <poly id="1005079341" type="building.house" color="255,230,230" fill="1" layer="-1.00" shape="1144.976301,1796.576158 1154.648359,1805.285538 1147.398810,1813.275226 1146.066609,1812.074731 1143.804083,1814.570171 1137.535847,1808.918844 1141.965230,1804.037469 1139.893801,1802.168814 1144.976301,1796.576158"/>
    <poly id="1005079342" type="building.house" color="255,230,230" fill="1" layer="-1.00" shape="1131.261032,1801.344898 1139.639504,1792.707522 1132.046757,1780.777290 1124.428673,1786.982723 1129.251854,1792.098403 1125.861936,1796.075008 1131.261032,1801.344898"/>
    <poly id="1005079343" type="building.house" color="255,230,230" fill="1" layer="-1.00" shape="1119.301190,1729.598424 1131.873148,1717.553658 1126.963370,1712.469852 1125.493381,1713.867426 1116.534337,1704.592292 1105.440372,1715.228532 1119.301190,1729.598424"/>
    <poly id="1005079344" type="building.house" color="255,230,230" fill="1" layer="-1.00" shape="1102.562514,1712.501681 1115.083554,1701.156127 1110.508894,1696.133566 1108.420811,1698.020767 1102.702240,1691.756459 1092.261465,1701.214699 1102.562514,1712.501681"/>
    <poly id="1005079345" type="building.house" color="255,230,230" fill="1" layer="-1.00" shape="1072.909684,1684.218323 1083.602172,1672.819569 1093.400243,1681.953260 1096.919311,1678.201077 1102.145347,1683.079063 1087.926156,1698.218731 1072.909684,1684.218323"/>
    <poly id="1005079346" type="building.house" color="255,230,230" fill="1" layer="-1.00" shape="1071.499310,1681.627425 1055.997047,1667.685525 1066.051180,1656.587110 1076.655586,1666.123351 1080.160898,1662.259799 1085.051136,1666.654242 1071.499310,1681.627425"/>