<?xml version="1.0" encoding="UTF-8"?>

<!-- generated on 2022-09-13 07:43:10 by Eclipse SUMO netconvert Version 1.14.1
<configuration xmlns:xsi="http://www.w3.org/2001/XMLSchema-instance" xsi:noNamespaceSchemaLocation="http://sumo.dlr.de/xsd/netconvertConfiguration.xsd">

    <input>
        <type-files value="C:\Program%20Files%20(x86)\Eclipse\Sumo\data\typemap\osmNetconvert.typ.xml"/>
        <osm-files value="osm_bbox.osm.xml"/>
    </input>

    <output>
        <output-file value="osm.net.xml"/>
        <output.street-names value="true"/>
        <output.original-names value="true"/>
        <ptstop-output value="osm_stops.add.xml"/>
        <ptline-output value="osm_ptlines.xml"/>
    </output>

    <projection>
        <proj.utm value="true"/>
    </projection>

    <processing>
        <geometry.remove value="true"/>
        <roundabouts.guess value="true"/>
        <lefthand value="true"/>
    </processing>

    <tls_building>
        <tls.discard-simple value="true"/>
        <tls.join value="true"/>
        <tls.guess-signals value="true"/>
        <tls.default-type value="actuated"/>
    </tls_building>

    <ramp_guessing>
        <ramps.guess value="true"/>
    </ramp_guessing>

    <edge_removal>
        <keep-edges.by-vclass value="passenger,bus,tram,rail_urban,rail"/>
    </edge_removal>

    <junctions>
        <junctions.join value="true"/>
        <junctions.corner-detail value="5"/>
    </junctions>

    <railway>
        <railway.topology.repair value="true"/>
    </railway>

    <report>
        <verbose value="true"/>
    </report>

</configuration>
-->

<net version="1.9" junctionCornerDetail="5" lefthand="true" limitTurnSpeed="5.50" xmlns:xsi="http://www.w3.org/2001/XMLSchema-instance" xsi:noNamespaceSchemaLocation="http://sumo.dlr.de/xsd/net_file.xsd">

    <location netOffset="-605094.49,-5035089.76" convBoundary="0.00,-0.00,2930.20,2627.74" origBoundary="-73.655372,45.461390,-73.617941,45.484967" projParameter="+proj=utm +zone=18 +ellps=WGS84 +datum=WGS84 +units=m +no_defs"/>

    <type id="highway.bridleway" priority="1" numLanes="1" speed="2.78" allow="pedestrian" oneway="1" width="2.00"/>
    <type id="highway.bus_guideway" priority="1" numLanes="1" speed="27.78" allow="bus" oneway="1"/>
    <type id="highway.cycleway" priority="1" numLanes="1" speed="5.56" allow="bicycle" oneway="0" width="1.00"/>
    <type id="highway.footway" priority="1" numLanes="1" speed="2.78" allow="pedestrian" oneway="1" width="2.00"/>
    <type id="highway.ford" priority="1" numLanes="1" speed="2.78" allow="army" oneway="0"/>
    <type id="highway.living_street" priority="2" numLanes="1" speed="2.78" disallow="tram rail_urban rail rail_electric rail_fast ship" oneway="0"/>
    <type id="highway.motorway" priority="14" numLanes="2" speed="39.44" allow="private emergency authority army vip passenger hov taxi bus coach delivery truck trailer motorcycle evehicle custom1 custom2" oneway="1"/>
    <type id="highway.motorway_link" priority="9" numLanes="1" speed="22.22" allow="private emergency authority army vip passenger hov taxi bus coach delivery truck trailer motorcycle evehicle custom1 custom2" oneway="1"/>
    <type id="highway.path" priority="1" numLanes="1" speed="5.56" allow="pedestrian bicycle" oneway="0" width="2.00"/>
    <type id="highway.pedestrian" priority="1" numLanes="1" speed="2.78" allow="pedestrian" oneway="1" width="2.00"/>
    <type id="highway.primary" priority="12" numLanes="2" speed="27.78" disallow="tram rail_urban rail rail_electric rail_fast ship" oneway="0"/>
    <type id="highway.primary_link" priority="7" numLanes="1" speed="22.22" disallow="tram rail_urban rail rail_electric rail_fast ship" oneway="0"/>
    <type id="highway.raceway" priority="15" numLanes="2" speed="83.33" allow="vip" oneway="0"/>
    <type id="highway.residential" priority="3" numLanes="1" speed="13.89" disallow="tram rail_urban rail rail_electric rail_fast ship" oneway="0"/>
    <type id="highway.secondary" priority="11" numLanes="1" speed="27.78" disallow="tram rail_urban rail rail_electric rail_fast ship" oneway="0"/>
    <type id="highway.secondary_link" priority="6" numLanes="1" speed="22.22" disallow="tram rail_urban rail rail_electric rail_fast ship" oneway="0"/>
    <type id="highway.service" priority="1" numLanes="1" speed="5.56" allow="pedestrian delivery bicycle" oneway="0"/>
    <type id="highway.stairs" priority="1" numLanes="1" speed="1.39" allow="pedestrian" oneway="1" width="2.00"/>
    <type id="highway.step" priority="1" numLanes="1" speed="1.39" allow="pedestrian" oneway="1" width="2.00"/>
    <type id="highway.steps" priority="1" numLanes="1" speed="1.39" allow="pedestrian" oneway="1" width="2.00"/>
    <type id="highway.tertiary" priority="10" numLanes="1" speed="22.22" disallow="tram rail_urban rail rail_electric rail_fast ship" oneway="0"/>
    <type id="highway.tertiary_link" priority="5" numLanes="1" speed="22.22" disallow="tram rail_urban rail rail_electric rail_fast ship" oneway="0"/>
    <type id="highway.track" priority="1" numLanes="1" speed="5.56" allow="pedestrian motorcycle moped bicycle" oneway="0"/>
    <type id="highway.trunk" priority="13" numLanes="2" speed="27.78" disallow="pedestrian bicycle tram rail_urban rail rail_electric rail_fast ship" oneway="0"/>
    <type id="highway.trunk_link" priority="8" numLanes="1" speed="22.22" disallow="pedestrian bicycle tram rail_urban rail rail_electric rail_fast ship" oneway="0"/>
    <type id="highway.unclassified" priority="4" numLanes="1" speed="13.89" disallow="tram rail_urban rail rail_electric rail_fast ship" oneway="0"/>
    <type id="highway.unsurfaced" priority="1" numLanes="1" speed="8.33" disallow="tram rail_urban rail rail_electric rail_fast ship" oneway="0"/>
    <type id="railway.highspeed" priority="21" numLanes="1" speed="69.44" allow="rail_fast" oneway="1"/>
    <type id="railway.light_rail" priority="19" numLanes="1" speed="27.78" allow="rail_urban" oneway="1"/>
    <type id="railway.preserved" priority="16" numLanes="1" speed="27.78" allow="rail" oneway="1"/>
    <type id="railway.rail" priority="20" numLanes="1" speed="44.44" allow="rail" oneway="1"/>
    <type id="railway.subway" priority="18" numLanes="1" speed="27.78" allow="rail_urban" oneway="1"/>
    <type id="railway.tram" priority="17" numLanes="1" speed="13.89" allow="tram" oneway="1"/>

    <edge id=":1415477583_0" function="internal">
        <lane id=":1415477583_0_0" index="0" disallow="pedestrian tram rail_urban rail rail_electric rail_fast ship" speed="8.33" length="9.71" shape="2123.73,2055.46 2115.45,2060.55"/>
    </edge>
    <edge id=":1415477583_1" function="internal">
        <lane id=":1415477583_1_0" index="0" disallow="pedestrian tram rail_urban rail rail_electric rail_fast ship" speed="6.47" length="8.80" shape="2122.99,2062.36 2121.41,2060.51 2119.63,2059.59 2117.64,2059.61 2115.45,2060.55"/>
    </edge>
    <edge id=":1767740434_0" function="internal">
        <lane id=":1767740434_0_0" index="0" disallow="pedestrian tram rail_urban rail rail_electric rail_fast ship" speed="11.11" length="7.98" shape="679.23,1090.55 672.22,1094.31"/>
        <lane id=":1767740434_0_1" index="1" disallow="pedestrian tram rail_urban rail rail_electric rail_fast ship" speed="11.11" length="7.98" shape="680.76,1093.36 673.73,1097.14"/>
        <lane id=":1767740434_0_2" index="2" disallow="pedestrian tram rail_urban rail rail_electric rail_fast ship" speed="11.11" length="7.98" shape="682.28,1096.17 675.24,1099.96"/>
    </edge>
    <edge id=":1767740434_3" function="internal">
        <lane id=":1767740434_3_0" index="0" disallow="pedestrian tram rail_urban rail rail_electric rail_fast ship" speed="11.11" length="9.24" shape="676.74,1102.79 679.55,1102.42 681.76,1103.74 683.99,1105.03 686.86,1104.61"/>
        <lane id=":1767740434_3_1" index="1" disallow="pedestrian tram rail_urban rail rail_electric rail_fast ship" speed="11.11" length="9.24" shape="676.74,1102.79 679.16,1102.06 681.04,1102.30 682.92,1102.54 685.33,1101.80"/>
        <lane id=":1767740434_3_2" index="2" disallow="pedestrian tram rail_urban rail rail_electric rail_fast ship" speed="11.11" length="9.24" shape="676.74,1102.79 683.81,1098.99"/>
    </edge>
    <edge id=":1829323825_0" function="internal">
        <lane id=":1829323825_0_0" index="0" disallow="tram rail_urban rail rail_electric rail_fast ship" speed="3.65" length="4.67" shape="572.99,1570.50 574.30,1571.12 575.19,1571.05 575.67,1570.30 575.74,1568.86"/>
    </edge>
    <edge id=":1903178504_0" function="internal">
        <lane id=":1903178504_0_0" index="0" disallow="tram rail_urban rail rail_electric rail_fast ship" speed="3.65" length="4.67" shape="1266.39,2269.06 1266.28,2270.50 1266.67,2271.30 1267.54,2271.48 1268.91,2271.03"/>
    </edge>
    <edge id=":2142050141_0" function="internal">
        <lane id=":2142050141_0_0" index="0" disallow="tram rail_urban rail rail_electric rail_fast ship" speed="3.65" length="4.67" shape="2178.90,2329.91 2180.21,2330.51 2181.10,2330.43 2181.57,2329.67 2181.63,2328.23"/>
    </edge>
    <edge id=":2185825247_0" function="internal">
        <lane id=":2185825247_0_0" index="0" disallow="tram rail_urban rail rail_electric rail_fast ship" speed="6.60" length="9.18" shape="1818.20,976.11 1817.26,973.77 1817.27,971.69 1818.24,969.85 1820.18,968.26"/>
    </edge>
    <edge id=":2185825247_1" function="internal">
        <lane id=":2185825247_1_0" index="0" disallow="tram rail_urban rail rail_electric rail_fast ship" speed="8.33" length="11.32" shape="1818.20,976.11 1812.55,966.29"/>
    </edge>
    <edge id=":2185825247_2" function="internal">
        <lane id=":2185825247_2_0" index="0" disallow="tram rail_urban rail rail_electric rail_fast ship" speed="3.65" length="4.67" shape="1818.20,976.11 1816.91,975.47 1816.01,975.52 1815.52,976.27 1815.43,977.71"/>
    </edge>
    <edge id=":2185825247_3" function="internal">
        <lane id=":2185825247_3_0" index="0" disallow="tram rail_urban rail rail_electric rail_fast ship" speed="6.48" length="9.03" shape="1807.79,975.73 1810.08,974.77 1812.11,974.78 1813.90,975.76 1815.43,977.71"/>
    </edge>
    <edge id=":2185825247_4" function="internal">
        <lane id=":2185825247_4_0" index="0" disallow="tram rail_urban rail rail_electric rail_fast ship" speed="8.33" length="14.47" shape="1807.79,975.73 1820.18,968.26"/>
    </edge>
    <edge id=":2185825247_5" function="internal">
        <lane id=":2185825247_5_0" index="0" disallow="tram rail_urban rail rail_electric rail_fast ship" speed="7.41" length="11.85" shape="1807.79,975.73 1810.93,973.44 1812.76,971.11 1813.31,968.72 1812.55,966.29"/>
    </edge>
    <edge id=":2185825247_6" function="internal">
        <lane id=":2185825247_6_0" index="0" disallow="tram rail_urban rail rail_electric rail_fast ship" speed="8.33" length="11.34" shape="1809.78,967.88 1815.43,977.71"/>
    </edge>
    <edge id=":2185825247_7" function="internal">
        <lane id=":2185825247_7_0" index="0" disallow="tram rail_urban rail rail_electric rail_fast ship" speed="7.27" length="11.77" shape="1809.78,967.88 1811.49,969.77 1813.80,970.46 1816.69,969.96 1820.18,968.26"/>
    </edge>
    <edge id=":2185825247_8" function="internal">
        <lane id=":2185825247_8_0" index="0" disallow="tram rail_urban rail rail_electric rail_fast ship" speed="3.65" length="4.67" shape="1809.78,967.88 1811.07,968.52 1811.96,968.48 1812.45,967.73 1812.55,966.29"/>
    </edge>
    <edge id=":2185825249_0" function="internal">
        <lane id=":2185825249_0_0" index="0" disallow="tram rail_urban rail rail_electric rail_fast ship" speed="6.49" length="9.03" shape="1861.81,1040.19 1859.51,1041.13 1857.48,1041.11 1855.69,1040.13 1854.16,1038.18"/>
    </edge>
    <edge id=":2185825249_1" function="internal">
        <lane id=":2185825249_1_0" index="0" disallow="tram rail_urban rail rail_electric rail_fast ship" speed="8.33" length="14.64" shape="1861.81,1040.19 1849.20,1047.63"/>
    </edge>
    <edge id=":2185825249_2" function="internal">
        <lane id=":2185825249_2_0" index="0" disallow="tram rail_urban rail rail_electric rail_fast ship" speed="8.26" length="4.07" shape="1861.81,1040.19 1858.77,1042.62 1858.68,1042.78"/>
    </edge>
    <edge id=":2185825249_3" function="internal">
        <lane id=":2185825249_3_0" index="0" disallow="tram rail_urban rail rail_electric rail_fast ship" speed="3.65" length="1.44" shape="1861.81,1040.19 1861.18,1041.49"/>
    </edge>
    <edge id=":2185825249_16" function="internal">
        <lane id=":2185825249_16_0" index="0" disallow="tram rail_urban rail rail_electric rail_fast ship" speed="8.26" length="10.39" shape="1858.68,1042.78 1857.18,1045.50 1857.03,1048.81 1858.32,1052.56"/>
    </edge>
    <edge id=":2185825249_17" function="internal">
        <lane id=":2185825249_17_0" index="0" disallow="tram rail_urban rail rail_electric rail_fast ship" speed="3.65" length="3.23" shape="1861.18,1041.49 1861.24,1042.38 1861.99,1042.87 1863.43,1042.95"/>
    </edge>
    <edge id=":2185825249_4" function="internal">
        <lane id=":2185825249_4_0" index="0" disallow="tram rail_urban rail rail_electric rail_fast ship" speed="6.81" length="9.53" shape="1861.18,1051.12 1860.31,1048.63 1860.40,1046.44 1861.44,1044.55 1863.43,1042.95"/>
    </edge>
    <edge id=":2185825249_5" function="internal">
        <lane id=":2185825249_5_0" index="0" disallow="tram rail_urban rail rail_electric rail_fast ship" speed="8.33" length="14.72" shape="1861.18,1051.12 1854.16,1038.18"/>
    </edge>
    <edge id=":2185825249_6" function="internal">
        <lane id=":2185825249_6_0" index="0" disallow="tram rail_urban rail rail_electric rail_fast ship" speed="7.89" length="4.33" shape="1861.18,1051.12 1858.88,1047.85 1858.59,1047.67"/>
    </edge>
    <edge id=":2185825249_7" function="internal">
        <lane id=":2185825249_7_0" index="0" disallow="tram rail_urban rail rail_electric rail_fast ship" speed="3.65" length="1.44" shape="1861.18,1051.12 1859.92,1050.41"/>
    </edge>
    <edge id=":2185825249_18" function="internal">
        <lane id=":2185825249_18_0" index="0" disallow="tram rail_urban rail rail_electric rail_fast ship" speed="7.89" length="10.11" shape="1858.59,1047.67 1856.12,1046.18 1852.89,1046.10 1849.20,1047.63"/>
    </edge>
    <edge id=":2185825249_19" function="internal">
        <lane id=":2185825249_19_0" index="0" disallow="tram rail_urban rail rail_electric rail_fast ship" speed="3.65" length="3.23" shape="1859.92,1050.41 1859.03,1050.41 1858.49,1051.13 1858.32,1052.56"/>
    </edge>
    <edge id=":2185825249_8" function="internal">
        <lane id=":2185825249_8_0" index="0" disallow="tram rail_urban rail rail_electric rail_fast ship" speed="6.37" length="9.04" shape="1850.83,1050.38 1853.14,1049.43 1855.16,1049.48 1856.89,1050.52 1858.32,1052.56"/>
    </edge>
    <edge id=":2185825249_9" function="internal">
        <lane id=":2185825249_9_0" index="0" disallow="tram rail_urban rail rail_electric rail_fast ship" speed="8.33" length="14.63" shape="1850.83,1050.38 1863.43,1042.95"/>
    </edge>
    <edge id=":2185825249_10" function="internal">
        <lane id=":2185825249_10_0" index="0" disallow="tram rail_urban rail rail_electric rail_fast ship" speed="8.08" length="4.16" shape="1850.83,1050.38 1853.94,1047.90 1854.03,1047.75"/>
    </edge>
    <edge id=":2185825249_11" function="internal">
        <lane id=":2185825249_11_0" index="0" disallow="tram rail_urban rail rail_electric rail_fast ship" speed="3.65" length="1.44" shape="1850.83,1050.38 1851.45,1049.08"/>
    </edge>
    <edge id=":2185825249_20" function="internal">
        <lane id=":2185825249_20_0" index="0" disallow="tram rail_urban rail rail_electric rail_fast ship" speed="8.08" length="10.24" shape="1854.03,1047.75 1855.53,1045.04 1855.61,1041.80 1854.16,1038.18"/>
    </edge>
    <edge id=":2185825249_21" function="internal">
        <lane id=":2185825249_21_0" index="0" disallow="tram rail_urban rail rail_electric rail_fast ship" speed="3.65" length="3.23" shape="1851.45,1049.08 1851.39,1048.19 1850.64,1047.71 1849.20,1047.63"/>
    </edge>
    <edge id=":2185825249_12" function="internal">
        <lane id=":2185825249_12_0" index="0" disallow="tram rail_urban rail rail_electric rail_fast ship" speed="6.60" length="9.27" shape="1851.39,1039.78 1852.31,1042.10 1852.25,1044.18 1851.22,1046.02 1849.20,1047.63"/>
    </edge>
    <edge id=":2185825249_13" function="internal">
        <lane id=":2185825249_13_0" index="0" disallow="tram rail_urban rail rail_electric rail_fast ship" speed="8.33" length="14.54" shape="1851.39,1039.78 1858.32,1052.56"/>
    </edge>
    <edge id=":2185825249_14" function="internal">
        <lane id=":2185825249_14_0" index="0" disallow="tram rail_urban rail rail_electric rail_fast ship" speed="7.99" length="3.90" shape="1851.39,1039.78 1853.80,1042.85"/>
    </edge>
    <edge id=":2185825249_15" function="internal">
        <lane id=":2185825249_15_0" index="0" disallow="tram rail_urban rail rail_electric rail_fast ship" speed="3.65" length="1.44" shape="1851.39,1039.78 1852.68,1040.42"/>
    </edge>
    <edge id=":2185825249_22" function="internal">
        <lane id=":2185825249_22_0" index="0" disallow="tram rail_urban rail rail_electric rail_fast ship" speed="7.99" length="10.32" shape="1853.80,1042.85 1856.61,1044.40 1859.82,1044.43 1863.43,1042.95"/>
    </edge>
    <edge id=":2185825249_23" function="internal">
        <lane id=":2185825249_23_0" index="0" disallow="tram rail_urban rail rail_electric rail_fast ship" speed="3.65" length="3.23" shape="1852.68,1040.42 1853.58,1040.37 1854.07,1039.62 1854.16,1038.18"/>
    </edge>
    <edge id=":220784665_0" function="internal">
        <lane id=":220784665_0_0" index="0" disallow="tram rail_urban rail rail_electric rail_fast ship" speed="6.64" length="12.44" shape="2084.26,1919.81 2081.56,1921.56 2079.17,1921.50 2077.12,1919.63 2075.38,1915.97"/>
    </edge>
    <edge id=":220784665_1" function="internal">
        <lane id=":220784665_1_0" index="0" disallow="pedestrian tram rail_urban rail rail_electric rail_fast ship" speed="11.11" length="17.34" shape="2084.26,1919.81 2081.37,1921.61 2077.64,1922.43 2073.06,1922.28 2067.64,1921.16"/>
    </edge>
    <edge id=":220784665_2" function="internal">
        <lane id=":220784665_2_0" index="0" disallow="pedestrian tram rail_urban rail rail_electric rail_fast ship" speed="7.41" length="17.22" shape="2084.26,1919.81 2080.34,1924.23 2079.09,1927.80 2080.50,1930.51 2084.57,1932.37"/>
    </edge>
    <edge id=":220784665_3" function="internal">
        <lane id=":220784665_3_0" index="0" disallow="pedestrian tram rail_urban rail rail_electric rail_fast ship" speed="11.11" length="15.53" shape="2086.21,1926.19 2082.52,1924.75 2079.48,1922.56 2077.10,1919.64 2075.38,1915.97"/>
    </edge>
    <edge id=":220784665_4" function="internal">
        <lane id=":220784665_4_0" index="0" disallow="pedestrian tram rail_urban rail rail_electric rail_fast ship" speed="13.89" length="19.25" shape="2086.21,1926.19 2067.64,1921.16"/>
        <lane id=":220784665_4_1" index="1" disallow="pedestrian tram rail_urban rail rail_electric rail_fast ship" speed="13.89" length="19.25" shape="2085.39,1929.28 2066.80,1924.24"/>
    </edge>
    <edge id=":220784665_6" function="internal">
        <lane id=":220784665_6_0" index="0" disallow="pedestrian tram rail_urban rail rail_electric rail_fast ship" speed="3.65" length="1.44" shape="2085.39,1929.28 2084.02,1929.75"/>
    </edge>
    <edge id=":220784665_12" function="internal">
        <lane id=":220784665_12_0" index="0" disallow="pedestrian tram rail_urban rail rail_electric rail_fast ship" speed="3.65" length="3.23" shape="2084.02,1929.75 2083.43,1930.42 2083.61,1931.29 2084.57,1932.37"/>
    </edge>
    <edge id=":220784665_7" function="internal">
        <lane id=":220784665_7_0" index="0" disallow="pedestrian tram rail_urban rail rail_electric rail_fast ship" speed="13.89" length="19.31" shape="2065.10,1930.41 2083.75,1935.47"/>
        <lane id=":220784665_7_1" index="1" disallow="pedestrian tram rail_urban rail rail_electric rail_fast ship" speed="13.89" length="19.31" shape="2065.95,1927.33 2084.57,1932.37"/>
    </edge>
    <edge id=":220784665_9" function="internal">
        <lane id=":220784665_9_0" index="0" disallow="pedestrian tram rail_urban rail rail_electric rail_fast ship" speed="8.05" length="5.34" shape="2065.95,1927.33 2071.24,1928.03"/>
    </edge>
    <edge id=":220784665_10" function="internal">
        <lane id=":220784665_10_0" index="0" disallow="pedestrian tram rail_urban rail rail_electric rail_fast ship" speed="3.65" length="1.44" shape="2065.95,1927.33 2067.32,1926.87"/>
    </edge>
    <edge id=":220784665_13" function="internal">
        <lane id=":220784665_13_0" index="0" disallow="pedestrian tram rail_urban rail rail_electric rail_fast ship" speed="8.05" length="15.63" shape="2071.24,1928.03 2072.06,1928.14 2075.67,1926.51 2076.78,1922.46 2075.38,1915.97"/>
    </edge>
    <edge id=":220784665_14" function="internal">
        <lane id=":220784665_14_0" index="0" disallow="pedestrian tram rail_urban rail rail_electric rail_fast ship" speed="3.65" length="3.23" shape="2067.32,1926.87 2067.91,1926.21 2067.74,1925.33 2066.80,1924.24"/>
    </edge>
    <edge id=":220784665_11" function="internal">
        <lane id=":220784665_11_0" index="0" disallow="pedestrian tram rail_urban rail rail_electric rail_fast ship" speed="11.11" length="20.78" shape="2072.21,1916.58 2074.76,1922.73 2077.67,1927.41 2080.94,1930.63 2084.57,1932.37"/>
    </edge>
    <edge id=":220784679_0" function="internal">
        <lane id=":220784679_0_0" index="0" disallow="pedestrian tram rail_urban rail rail_electric rail_fast ship" speed="6.06" length="9.18" shape="1785.00,1841.17 1782.71,1839.82 1781.61,1838.16 1781.68,1836.21 1782.92,1833.95"/>
    </edge>
    <edge id=":220784679_1" function="internal">
        <lane id=":220784679_1_0" index="0" disallow="pedestrian tram rail_urban rail rail_electric rail_fast ship" speed="13.89" length="15.06" shape="1785.00,1841.17 1771.41,1834.83"/>
        <lane id=":220784679_1_1" index="1" disallow="pedestrian tram rail_urban rail rail_electric rail_fast ship" speed="13.89" length="15.06" shape="1783.70,1844.10 1770.01,1837.71"/>
    </edge>
    <edge id=":220784679_3" function="internal">
        <lane id=":220784679_3_0" index="0" disallow="pedestrian tram rail_urban rail rail_electric rail_fast ship" speed="10.67" length="2.41" shape="1783.70,1844.10 1781.31,1843.80"/>
    </edge>
    <edge id=":220784679_4" function="internal">
        <lane id=":220784679_4_0" index="0" disallow="pedestrian tram rail_urban rail rail_electric rail_fast ship" speed="3.65" length="1.44" shape="1783.70,1844.10 1782.28,1844.34"/>
    </edge>
    <edge id=":220784679_14" function="internal">
        <lane id=":220784679_14_0" index="0" disallow="pedestrian tram rail_urban rail rail_electric rail_fast ship" speed="10.67" length="14.45" shape="1781.31,1843.80 1780.98,1843.76 1777.60,1844.76 1773.57,1847.08 1768.89,1850.75"/>
    </edge>
    <edge id=":220784679_15" function="internal">
        <lane id=":220784679_15_0" index="0" disallow="pedestrian tram rail_urban rail rail_electric rail_fast ship" speed="3.65" length="3.23" shape="1782.28,1844.34 1781.59,1844.91 1781.63,1845.80 1782.40,1847.02"/>
    </edge>
    <edge id=":220784679_5" function="internal">
        <lane id=":220784679_5_0" index="0" disallow="pedestrian tram rail_urban rail rail_electric rail_fast ship" speed="8.53" length="10.53" shape="1771.50,1852.72 1774.09,1850.83 1776.55,1849.74 1778.89,1849.44 1781.11,1849.95"/>
    </edge>
    <edge id=":220784679_6" function="internal">
        <lane id=":220784679_6_0" index="0" disallow="pedestrian tram rail_urban rail rail_electric rail_fast ship" speed="9.72" length="22.03" shape="1771.50,1852.72 1774.45,1848.97 1777.49,1843.60 1780.39,1838.10 1782.92,1833.95"/>
    </edge>
    <edge id=":220784679_7" function="internal">
        <lane id=":220784679_7_0" index="0" disallow="pedestrian tram rail_urban rail rail_electric rail_fast ship" speed="8.19" length="19.43" shape="1771.50,1852.72 1775.34,1848.38 1776.37,1844.43 1774.60,1840.87 1770.01,1837.71"/>
    </edge>
    <edge id=":220784679_8" function="internal">
        <lane id=":220784679_8_0" index="0" disallow="pedestrian tram rail_urban rail rail_electric rail_fast ship" speed="3.68" length="1.47" shape="1771.50,1852.72 1771.59,1851.25"/>
    </edge>
    <edge id=":220784679_16" function="internal">
        <lane id=":220784679_16_0" index="0" disallow="pedestrian tram rail_urban rail rail_electric rail_fast ship" speed="3.68" length="3.30" shape="1771.59,1851.25 1771.18,1850.43 1770.28,1850.26 1768.89,1850.75"/>
    </edge>
    <edge id=":220784679_9" function="internal">
        <lane id=":220784679_9_0" index="0" disallow="pedestrian tram rail_urban rail rail_electric rail_fast ship" speed="5.94" length="9.59" shape="1767.21,1843.46 1769.73,1845.11 1770.84,1846.88 1770.56,1848.75 1768.89,1850.75"/>
    </edge>
    <edge id=":220784679_10" function="internal">
        <lane id=":220784679_10_0" index="0" disallow="pedestrian tram rail_urban rail rail_electric rail_fast ship" speed="13.89" length="15.27" shape="1767.21,1843.46 1781.11,1849.95"/>
        <lane id=":220784679_10_1" index="1" disallow="pedestrian tram rail_urban rail rail_electric rail_fast ship" speed="13.89" length="15.27" shape="1768.61,1840.59 1782.40,1847.02"/>
    </edge>
    <edge id=":220784679_12" function="internal">
        <lane id=":220784679_12_0" index="0" disallow="pedestrian tram rail_urban rail rail_electric rail_fast ship" speed="9.41" length="3.52" shape="1768.61,1840.59 1772.03,1841.42"/>
    </edge>
    <edge id=":220784679_13" function="internal">
        <lane id=":220784679_13_0" index="0" disallow="pedestrian tram rail_urban rail rail_electric rail_fast ship" speed="3.65" length="1.44" shape="1768.61,1840.59 1770.04,1840.39"/>
    </edge>
    <edge id=":220784679_17" function="internal">
        <lane id=":220784679_17_0" index="0" disallow="pedestrian tram rail_urban rail rail_electric rail_fast ship" speed="9.41" length="13.61" shape="1772.03,1841.42 1775.55,1840.59 1779.18,1838.10 1782.92,1833.95"/>
    </edge>
    <edge id=":220784679_18" function="internal">
        <lane id=":220784679_18_0" index="0" disallow="pedestrian tram rail_urban rail rail_electric rail_fast ship" speed="3.65" length="3.23" shape="1770.04,1840.39 1770.75,1839.84 1770.74,1838.95 1770.01,1837.71"/>
    </edge>
    <edge id=":220784686_0" function="internal">
        <lane id=":220784686_0_0" index="0" disallow="pedestrian tram rail_urban rail rail_electric rail_fast ship" speed="6.90" length="8.73" shape="1690.04,1785.97 1688.28,1787.77 1686.42,1788.76 1684.47,1788.94 1682.42,1788.30"/>
    </edge>
    <edge id=":220784686_1" function="internal">
        <lane id=":220784686_1_0" index="0" disallow="pedestrian tram rail_urban rail rail_electric rail_fast ship" speed="7.70" length="15.12" shape="1690.04,1785.97 1687.21,1790.37 1686.15,1793.98 1686.86,1796.81 1689.34,1798.84"/>
    </edge>
    <edge id=":220784686_2" function="internal">
        <lane id=":220784686_2_0" index="0" disallow="pedestrian tram rail_urban rail rail_electric rail_fast ship" speed="13.89" length="10.85" shape="1692.15,1793.09 1682.42,1788.30"/>
        <lane id=":220784686_2_1" index="1" disallow="pedestrian tram rail_urban rail rail_electric rail_fast ship" speed="13.89" length="10.85" shape="1690.75,1795.97 1681.00,1791.17"/>
    </edge>
    <edge id=":220784686_4" function="internal">
        <lane id=":220784686_4_0" index="0" disallow="pedestrian tram rail_urban rail rail_electric rail_fast ship" speed="3.65" length="1.44" shape="1690.75,1795.97 1689.32,1796.16"/>
    </edge>
    <edge id=":220784686_8" function="internal">
        <lane id=":220784686_8_0" index="0" disallow="pedestrian tram rail_urban rail rail_electric rail_fast ship" speed="3.65" length="3.23" shape="1689.32,1796.16 1688.61,1796.70 1688.61,1797.60 1689.34,1798.84"/>
    </edge>
    <edge id=":220784686_5" function="internal">
        <lane id=":220784686_5_0" index="0" disallow="pedestrian tram rail_urban rail rail_electric rail_fast ship" speed="13.89" length="10.90" shape="1678.15,1796.90 1687.94,1801.72"/>
        <lane id=":220784686_5_1" index="1" disallow="pedestrian tram rail_urban rail rail_electric rail_fast ship" speed="13.89" length="10.90" shape="1679.57,1794.03 1689.34,1798.84"/>
    </edge>
    <edge id=":220784686_7" function="internal">
        <lane id=":220784686_7_0" index="0" disallow="pedestrian tram rail_urban rail rail_electric rail_fast ship" speed="3.65" length="1.44" shape="1679.57,1794.03 1681.00,1793.85"/>
    </edge>
    <edge id=":220784686_9" function="internal">
        <lane id=":220784686_9_0" index="0" disallow="pedestrian tram rail_urban rail rail_electric rail_fast ship" speed="3.65" length="3.23" shape="1681.00,1793.85 1681.72,1793.31 1681.72,1792.42 1681.00,1791.17"/>
    </edge>
    <edge id=":220784690_0" function="internal">
        <lane id=":220784690_0_0" index="0" disallow="pedestrian tram rail_urban rail rail_electric rail_fast ship" speed="5.96" length="9.08" shape="1610.68,1756.90 1608.21,1755.49 1606.96,1753.87 1606.93,1752.04 1608.12,1750.00"/>
    </edge>
    <edge id=":220784690_1" function="internal">
        <lane id=":220784690_1_0" index="0" disallow="pedestrian tram rail_urban rail rail_electric rail_fast ship" speed="13.89" length="11.19" shape="1610.68,1756.90 1600.15,1753.03"/>
        <lane id=":220784690_1_1" index="1" disallow="pedestrian tram rail_urban rail rail_electric rail_fast ship" speed="13.89" length="11.19" shape="1609.55,1759.90 1599.08,1756.05"/>
    </edge>
    <edge id=":220784690_3" function="internal">